
#======================================================================
# CRYSTAL DATA
#----------------------------------------------------------------------
data_VESTA_phase_1

_chemical_name_common                  'image0'
_cell_length_a                         68.229599
_cell_length_b                         68.229599
_cell_length_c                         14.145600
_cell_angle_alpha                      90.000000
_cell_angle_beta                       90.000000
_cell_angle_gamma                      120.000000
_cell_volume                           57029.248981
_space_group_name_H-M_alt              'P 1'
_space_group_IT_number                 1

loop_
_space_group_symop_operation_xyz
   'x, y, z'

loop_
   _atom_site_label
   _atom_site_occupancy
   _atom_site_fract_x
   _atom_site_fract_y
   _atom_site_fract_z
   _atom_site_adp_type
   _atom_site_B_iso_or_equiv
   _atom_site_type_symbol
   Na1         1.0     0.000000     0.000000     0.000000    Biso  1.000000 Na
   Na2         1.0     0.027780     0.013890     0.333330    Biso  1.000000 Na
   Na3         1.0     0.013890     0.027780     0.666670    Biso  1.000000 Na
   O1          1.0     0.000000     0.000000     0.239590    Biso  1.000000 O
   O2          1.0     0.027780     0.013890     0.093750    Biso  1.000000 O
   O3          1.0     0.027780     0.013890     0.572920    Biso  1.000000 O
   O4          1.0     0.013890     0.027780     0.427080    Biso  1.000000 O
   O5          1.0     0.013890     0.027780     0.906250    Biso  1.000000 O
   O6          1.0     0.000000     0.000000     0.760410    Biso  1.000000 O
   Mn1         1.0     0.013890     0.027780     0.166670    Biso  1.000000 Mn
   Ni1         1.0     0.000000     0.000000     0.500000    Biso  1.000000 Ni
   Ni2         1.0     0.027780     0.013890     0.833330    Biso  1.000000 Ni
   Na4         1.0     0.000000     0.041670     0.000000    Biso  1.000000 Na
   Na5         1.0     0.027780     0.055560     0.333330    Biso  1.000000 Na
   Na6         1.0     0.013890     0.069440     0.666670    Biso  1.000000 Na
   O7          1.0     0.000000     0.041670     0.239590    Biso  1.000000 O
   O8          1.0     0.027780     0.055560     0.093750    Biso  1.000000 O
   O9          1.0     0.027780     0.055560     0.572920    Biso  1.000000 O
   O10         1.0     0.013890     0.069440     0.427080    Biso  1.000000 O
   O11         1.0     0.013890     0.069440     0.906250    Biso  1.000000 O
   O12         1.0     0.000000     0.041670     0.760410    Biso  1.000000 O
   Ni3         1.0     0.013890     0.069440     0.166670    Biso  1.000000 Ni
   Mn2         1.0     0.000000     0.041670     0.500000    Biso  1.000000 Mn
   Mn3         1.0     0.027780     0.055560     0.833330    Biso  1.000000 Mn
   Na7         1.0     0.000000     0.083330     0.000000    Biso  1.000000 Na
   Na8         1.0     0.027780     0.097220     0.333330    Biso  1.000000 Na
   Na9         1.0     0.013890     0.111110     0.666670    Biso  1.000000 Na
   O13         1.0     0.000000     0.083330     0.239590    Biso  1.000000 O
   O14         1.0     0.027780     0.097220     0.093750    Biso  1.000000 O
   O15         1.0     0.027780     0.097220     0.572920    Biso  1.000000 O
   O16         1.0     0.013890     0.111110     0.427080    Biso  1.000000 O
   O17         1.0     0.013890     0.111110     0.906250    Biso  1.000000 O
   O18         1.0     0.000000     0.083330     0.760410    Biso  1.000000 O
   Mn4         1.0     0.013890     0.111110     0.166670    Biso  1.000000 Mn
   Mn5         1.0     0.000000     0.083330     0.500000    Biso  1.000000 Mn
   Mn6         1.0     0.027780     0.097220     0.833330    Biso  1.000000 Mn
   Na10        1.0     0.000000     0.125000     0.000000    Biso  1.000000 Na
   Na11        1.0     0.027780     0.138890     0.333330    Biso  1.000000 Na
   Na12        1.0     0.013890     0.152780     0.666670    Biso  1.000000 Na
   O19         1.0     0.000000     0.125000     0.239590    Biso  1.000000 O
   O20         1.0     0.027780     0.138890     0.093750    Biso  1.000000 O
   O21         1.0     0.027780     0.138890     0.572920    Biso  1.000000 O
   O22         1.0     0.013890     0.152780     0.427080    Biso  1.000000 O
   O23         1.0     0.013890     0.152780     0.906250    Biso  1.000000 O
   O24         1.0     0.000000     0.125000     0.760410    Biso  1.000000 O
   Mn7         1.0     0.013890     0.152780     0.166670    Biso  1.000000 Mn
   Ni4         1.0     0.000000     0.125000     0.500000    Biso  1.000000 Ni
   Ni5         1.0     0.027780     0.138890     0.833330    Biso  1.000000 Ni
   Na13        1.0     0.000000     0.166670     0.000000    Biso  1.000000 Na
   Na14        1.0     0.027780     0.180560     0.333330    Biso  1.000000 Na
   Na15        1.0     0.013890     0.194440     0.666670    Biso  1.000000 Na
   O25         1.0     0.000000     0.166670     0.239590    Biso  1.000000 O
   O26         1.0     0.027780     0.180560     0.093750    Biso  1.000000 O
   O27         1.0     0.027780     0.180560     0.572920    Biso  1.000000 O
   O28         1.0     0.013890     0.194440     0.427080    Biso  1.000000 O
   O29         1.0     0.013890     0.194440     0.906250    Biso  1.000000 O
   O30         1.0     0.000000     0.166670     0.760410    Biso  1.000000 O
   Ni6         1.0     0.013890     0.194440     0.166670    Biso  1.000000 Ni
   Mn8         1.0     0.000000     0.166670     0.500000    Biso  1.000000 Mn
   Mn9         1.0     0.027780     0.180560     0.833330    Biso  1.000000 Mn
   Na16        1.0     0.000000     0.208330     0.000000    Biso  1.000000 Na
   Na17        1.0     0.027780     0.222220     0.333330    Biso  1.000000 Na
   Na18        1.0     0.013890     0.236110     0.666670    Biso  1.000000 Na
   O31         1.0     0.000000     0.208330     0.239590    Biso  1.000000 O
   O32         1.0     0.027780     0.222220     0.093750    Biso  1.000000 O
   O33         1.0     0.027780     0.222220     0.572920    Biso  1.000000 O
   O34         1.0     0.013890     0.236110     0.427080    Biso  1.000000 O
   O35         1.0     0.013890     0.236110     0.906250    Biso  1.000000 O
   O36         1.0     0.000000     0.208330     0.760410    Biso  1.000000 O
   Mn10        1.0     0.013890     0.236110     0.166670    Biso  1.000000 Mn
   Mn11        1.0     0.000000     0.208330     0.500000    Biso  1.000000 Mn
   Mn12        1.0     0.027780     0.222220     0.833330    Biso  1.000000 Mn
   Na19        1.0     0.000000     0.250000     0.000000    Biso  1.000000 Na
   Na20        1.0     0.027780     0.263890     0.333330    Biso  1.000000 Na
   Na21        1.0     0.013890     0.277780     0.666670    Biso  1.000000 Na
   O37         1.0     0.000000     0.250000     0.239590    Biso  1.000000 O
   O38         1.0     0.027780     0.263890     0.093750    Biso  1.000000 O
   O39         1.0     0.027780     0.263890     0.572920    Biso  1.000000 O
   O40         1.0     0.013890     0.277780     0.427080    Biso  1.000000 O
   O41         1.0     0.013890     0.277780     0.906250    Biso  1.000000 O
   O42         1.0     0.000000     0.250000     0.760410    Biso  1.000000 O
   Mn13        1.0     0.013890     0.277780     0.166670    Biso  1.000000 Mn
   Mn14        1.0     0.000000     0.250000     0.500000    Biso  1.000000 Mn
   Ni7         1.0     0.027780     0.263890     0.833330    Biso  1.000000 Ni
   Na22        1.0     0.000000     0.291670     0.000000    Biso  1.000000 Na
   Na23        1.0     0.027780     0.305560     0.333330    Biso  1.000000 Na
   Na24        1.0     0.013890     0.319440     0.666670    Biso  1.000000 Na
   O43         1.0     0.000000     0.291670     0.239590    Biso  1.000000 O
   O44         1.0     0.027780     0.305560     0.093750    Biso  1.000000 O
   O45         1.0     0.027780     0.305560     0.572920    Biso  1.000000 O
   O46         1.0     0.013890     0.319440     0.427080    Biso  1.000000 O
   O47         1.0     0.013890     0.319440     0.906250    Biso  1.000000 O
   O48         1.0     0.000000     0.291670     0.760410    Biso  1.000000 O
   Ni8         1.0     0.013890     0.319440     0.166670    Biso  1.000000 Ni
   Mn15        1.0     0.000000     0.291670     0.500000    Biso  1.000000 Mn
   Mn16        1.0     0.027780     0.305560     0.833330    Biso  1.000000 Mn
   Na25        1.0     0.000000     0.333330     0.000000    Biso  1.000000 Na
   Na26        1.0     0.027780     0.347220     0.333330    Biso  1.000000 Na
   Na27        1.0     0.013890     0.361110     0.666670    Biso  1.000000 Na
   O49         1.0     0.000000     0.333330     0.239590    Biso  1.000000 O
   O50         1.0     0.027780     0.347220     0.093750    Biso  1.000000 O
   O51         1.0     0.027780     0.347220     0.572920    Biso  1.000000 O
   O52         1.0     0.013890     0.361110     0.427080    Biso  1.000000 O
   O53         1.0     0.013890     0.361110     0.906250    Biso  1.000000 O
   O54         1.0     0.000000     0.333330     0.760410    Biso  1.000000 O
   Ni9         1.0     0.013890     0.361110     0.166670    Biso  1.000000 Ni
   Mn17        1.0     0.000000     0.333330     0.500000    Biso  1.000000 Mn
   Mn18        1.0     0.027780     0.347220     0.833330    Biso  1.000000 Mn
   Na28        1.0     0.000000     0.375000     0.000000    Biso  1.000000 Na
   Na29        1.0     0.027780     0.388890     0.333330    Biso  1.000000 Na
   Na30        1.0     0.013890     0.402780     0.666670    Biso  1.000000 Na
   O55         1.0     0.000000     0.375000     0.239590    Biso  1.000000 O
   O56         1.0     0.027780     0.388890     0.093750    Biso  1.000000 O
   O57         1.0     0.027780     0.388890     0.572920    Biso  1.000000 O
   O58         1.0     0.013890     0.402780     0.427080    Biso  1.000000 O
   O59         1.0     0.013890     0.402780     0.906250    Biso  1.000000 O
   O60         1.0     0.000000     0.375000     0.760410    Biso  1.000000 O
   Mn19        1.0     0.013890     0.402780     0.166670    Biso  1.000000 Mn
   Li1         1.0     0.000000     0.375000     0.500000    Biso  1.000000 Li
   Ni10        1.0     0.027780     0.388890     0.833330    Biso  1.000000 Ni
   Na31        1.0     0.000000     0.416670     0.000000    Biso  1.000000 Na
   Na32        1.0     0.027780     0.430560     0.333330    Biso  1.000000 Na
   Na33        1.0     0.013890     0.444440     0.666670    Biso  1.000000 Na
   O61         1.0     0.000000     0.416670     0.239590    Biso  1.000000 O
   O62         1.0     0.027780     0.430560     0.093750    Biso  1.000000 O
   O63         1.0     0.027780     0.430560     0.572920    Biso  1.000000 O
   O64         1.0     0.013890     0.444440     0.427080    Biso  1.000000 O
   O65         1.0     0.013890     0.444440     0.906250    Biso  1.000000 O
   O66         1.0     0.000000     0.416670     0.760410    Biso  1.000000 O
   Mn20        1.0     0.013890     0.444440     0.166670    Biso  1.000000 Mn
   Mn21        1.0     0.000000     0.416670     0.500000    Biso  1.000000 Mn
   Mn22        1.0     0.027780     0.430560     0.833330    Biso  1.000000 Mn
   Na34        1.0     0.000000     0.458330     0.000000    Biso  1.000000 Na
   Na35        1.0     0.027780     0.472220     0.333330    Biso  1.000000 Na
   Na36        1.0     0.013890     0.486110     0.666670    Biso  1.000000 Na
   O67         1.0     0.000000     0.458330     0.239590    Biso  1.000000 O
   O68         1.0     0.027780     0.472220     0.093750    Biso  1.000000 O
   O69         1.0     0.027780     0.472220     0.572920    Biso  1.000000 O
   O70         1.0     0.013890     0.486110     0.427080    Biso  1.000000 O
   O71         1.0     0.013890     0.486110     0.906250    Biso  1.000000 O
   O72         1.0     0.000000     0.458330     0.760410    Biso  1.000000 O
   Li2         1.0     0.013890     0.486110     0.166670    Biso  1.000000 Li
   Mn23        1.0     0.000000     0.458330     0.500000    Biso  1.000000 Mn
   Mn24        1.0     0.027780     0.472220     0.833330    Biso  1.000000 Mn
   Na37        1.0     0.000000     0.500000     0.000000    Biso  1.000000 Na
   Na38        1.0     0.027780     0.513890     0.333330    Biso  1.000000 Na
   Na39        1.0     0.013890     0.527780     0.666670    Biso  1.000000 Na
   O73         1.0     0.000000     0.500000     0.239590    Biso  1.000000 O
   O74         1.0     0.027780     0.513890     0.093750    Biso  1.000000 O
   O75         1.0     0.027780     0.513890     0.572920    Biso  1.000000 O
   O76         1.0     0.013890     0.527780     0.427080    Biso  1.000000 O
   O77         1.0     0.013890     0.527780     0.906250    Biso  1.000000 O
   O78         1.0     0.000000     0.500000     0.760410    Biso  1.000000 O
   Mn25        1.0     0.013890     0.527780     0.166670    Biso  1.000000 Mn
   Mn26        1.0     0.000000     0.500000     0.500000    Biso  1.000000 Mn
   Mn27        1.0     0.027780     0.513890     0.833330    Biso  1.000000 Mn
   Na40        1.0     0.000000     0.541670     0.000000    Biso  1.000000 Na
   Na41        1.0     0.027780     0.555560     0.333330    Biso  1.000000 Na
   Na42        1.0     0.013890     0.569440     0.666670    Biso  1.000000 Na
   O79         1.0     0.000000     0.541670     0.239590    Biso  1.000000 O
   O80         1.0     0.027780     0.555560     0.093750    Biso  1.000000 O
   O81         1.0     0.027780     0.555560     0.572920    Biso  1.000000 O
   O82         1.0     0.013890     0.569440     0.427080    Biso  1.000000 O
   O83         1.0     0.013890     0.569440     0.906250    Biso  1.000000 O
   O84         1.0     0.000000     0.541670     0.760410    Biso  1.000000 O
   Mn28        1.0     0.013890     0.569440     0.166670    Biso  1.000000 Mn
   Mn29        1.0     0.000000     0.541670     0.500000    Biso  1.000000 Mn
   Li3         1.0     0.027780     0.555560     0.833330    Biso  1.000000 Li
   Na43        1.0     0.000000     0.583330     0.000000    Biso  1.000000 Na
   Na44        1.0     0.027780     0.597220     0.333330    Biso  1.000000 Na
   Na45        1.0     0.013890     0.611110     0.666670    Biso  1.000000 Na
   O85         1.0     0.000000     0.583330     0.239590    Biso  1.000000 O
   O86         1.0     0.027780     0.597220     0.093750    Biso  1.000000 O
   O87         1.0     0.027780     0.597220     0.572920    Biso  1.000000 O
   O88         1.0     0.013890     0.611110     0.427080    Biso  1.000000 O
   O89         1.0     0.013890     0.611110     0.906250    Biso  1.000000 O
   O90         1.0     0.000000     0.583330     0.760410    Biso  1.000000 O
   Mn30        1.0     0.013890     0.611110     0.166670    Biso  1.000000 Mn
   Mn31        1.0     0.000000     0.583330     0.500000    Biso  1.000000 Mn
   Mn32        1.0     0.027780     0.597220     0.833330    Biso  1.000000 Mn
   Na46        1.0     0.000000     0.625000     0.000000    Biso  1.000000 Na
   Na47        1.0     0.027780     0.638890     0.333330    Biso  1.000000 Na
   Na48        1.0     0.013890     0.652780     0.666670    Biso  1.000000 Na
   O91         1.0     0.000000     0.625000     0.239590    Biso  1.000000 O
   O92         1.0     0.027780     0.638890     0.093750    Biso  1.000000 O
   O93         1.0     0.027780     0.638890     0.572920    Biso  1.000000 O
   O94         1.0     0.013890     0.652780     0.427080    Biso  1.000000 O
   O95         1.0     0.013890     0.652780     0.906250    Biso  1.000000 O
   O96         1.0     0.000000     0.625000     0.760410    Biso  1.000000 O
   Mn33        1.0     0.013890     0.652780     0.166670    Biso  1.000000 Mn
   Li4         1.0     0.000000     0.625000     0.500000    Biso  1.000000 Li
   Mn34        1.0     0.027780     0.638890     0.833330    Biso  1.000000 Mn
   Na49        1.0     1.000000     0.666670     0.000000    Biso  1.000000 Na
   Na50        1.0     0.027780     0.680560     0.333330    Biso  1.000000 Na
   Na51        1.0     0.013890     0.694440     0.666670    Biso  1.000000 Na
   O97         1.0     1.000000     0.666670     0.239590    Biso  1.000000 O
   O98         1.0     0.027780     0.680560     0.093750    Biso  1.000000 O
   O99         1.0     0.027780     0.680560     0.572920    Biso  1.000000 O
   O100        1.0     0.013890     0.694440     0.427080    Biso  1.000000 O
   O101        1.0     0.013890     0.694440     0.906250    Biso  1.000000 O
   O102        1.0     1.000000     0.666670     0.760410    Biso  1.000000 O
   Li5         1.0     0.013890     0.694440     0.166670    Biso  1.000000 Li
   Mn35        1.0     1.000000     0.666670     0.500000    Biso  1.000000 Mn
   Li6         1.0     0.027780     0.680560     0.833330    Biso  1.000000 Li
   Na52        1.0     0.000000     0.708330     0.000000    Biso  1.000000 Na
   Na53        1.0     0.027780     0.722220     0.333330    Biso  1.000000 Na
   Na54        1.0     0.013890     0.736110     0.666670    Biso  1.000000 Na
   O103        1.0     0.000000     0.708330     0.239590    Biso  1.000000 O
   O104        1.0     0.027780     0.722220     0.093750    Biso  1.000000 O
   O105        1.0     0.027780     0.722220     0.572920    Biso  1.000000 O
   O106        1.0     0.013890     0.736110     0.427080    Biso  1.000000 O
   O107        1.0     0.013890     0.736110     0.906250    Biso  1.000000 O
   O108        1.0     0.000000     0.708330     0.760410    Biso  1.000000 O
   Mn36        1.0     0.013890     0.736110     0.166670    Biso  1.000000 Mn
   Ni11        1.0     0.000000     0.708330     0.500000    Biso  1.000000 Ni
   Mn37        1.0     0.027780     0.722220     0.833330    Biso  1.000000 Mn
   Na55        1.0     0.000000     0.750000     0.000000    Biso  1.000000 Na
   Na56        1.0     0.027780     0.763890     0.333330    Biso  1.000000 Na
   Na57        1.0     0.013890     0.777780     0.666670    Biso  1.000000 Na
   O109        1.0     0.000000     0.750000     0.239590    Biso  1.000000 O
   O110        1.0     0.027780     0.763890     0.093750    Biso  1.000000 O
   O111        1.0     0.027780     0.763890     0.572920    Biso  1.000000 O
   O112        1.0     0.013890     0.777780     0.427080    Biso  1.000000 O
   O113        1.0     0.013890     0.777780     0.906250    Biso  1.000000 O
   O114        1.0     0.000000     0.750000     0.760410    Biso  1.000000 O
   Mn38        1.0     0.013890     0.777780     0.166670    Biso  1.000000 Mn
   Mn39        1.0     0.000000     0.750000     0.500000    Biso  1.000000 Mn
   Mn40        1.0     0.027780     0.763890     0.833330    Biso  1.000000 Mn
   Na58        1.0     0.000000     0.791670     0.000000    Biso  1.000000 Na
   Na59        1.0     0.027780     0.805560     0.333330    Biso  1.000000 Na
   Na60        1.0     0.013890     0.819440     0.666670    Biso  1.000000 Na
   O115        1.0     0.000000     0.791670     0.239590    Biso  1.000000 O
   O116        1.0     0.027780     0.805560     0.093750    Biso  1.000000 O
   O117        1.0     0.027780     0.805560     0.572920    Biso  1.000000 O
   O118        1.0     0.013890     0.819440     0.427080    Biso  1.000000 O
   O119        1.0     0.013890     0.819440     0.906250    Biso  1.000000 O
   O120        1.0     0.000000     0.791670     0.760410    Biso  1.000000 O
   Ni12        1.0     0.013890     0.819440     0.166670    Biso  1.000000 Ni
   Mn41        1.0     0.000000     0.791670     0.500000    Biso  1.000000 Mn
   Mn42        1.0     0.027780     0.805560     0.833330    Biso  1.000000 Mn
   Na61        1.0     0.000000     0.833330     0.000000    Biso  1.000000 Na
   Na62        1.0     0.027780     0.847220     0.333330    Biso  1.000000 Na
   Na63        1.0     0.013890     0.861110     0.666670    Biso  1.000000 Na
   O121        1.0     0.000000     0.833330     0.239590    Biso  1.000000 O
   O122        1.0     0.027780     0.847220     0.093750    Biso  1.000000 O
   O123        1.0     0.027780     0.847220     0.572920    Biso  1.000000 O
   O124        1.0     0.013890     0.861110     0.427080    Biso  1.000000 O
   O125        1.0     0.013890     0.861110     0.906250    Biso  1.000000 O
   O126        1.0     0.000000     0.833330     0.760410    Biso  1.000000 O
   Mn43        1.0     0.013890     0.861110     0.166670    Biso  1.000000 Mn
   Mn44        1.0     0.000000     0.833330     0.500000    Biso  1.000000 Mn
   Ni13        1.0     0.027780     0.847220     0.833330    Biso  1.000000 Ni
   Na64        1.0     0.000000     0.875000     0.000000    Biso  1.000000 Na
   Na65        1.0     0.027780     0.888890     0.333330    Biso  1.000000 Na
   Na66        1.0     0.013890     0.902780     0.666670    Biso  1.000000 Na
   O127        1.0     0.000000     0.875000     0.239590    Biso  1.000000 O
   O128        1.0     0.027780     0.888890     0.093750    Biso  1.000000 O
   O129        1.0     0.027780     0.888890     0.572920    Biso  1.000000 O
   O130        1.0     0.013890     0.902780     0.427080    Biso  1.000000 O
   O131        1.0     0.013890     0.902780     0.906250    Biso  1.000000 O
   O132        1.0     0.000000     0.875000     0.760410    Biso  1.000000 O
   Mn45        1.0     0.013890     0.902780     0.166670    Biso  1.000000 Mn
   Ni14        1.0     0.000000     0.875000     0.500000    Biso  1.000000 Ni
   Ni15        1.0     0.027780     0.888890     0.833330    Biso  1.000000 Ni
   Na67        1.0     0.000000     0.916670     0.000000    Biso  1.000000 Na
   Na68        1.0     0.027780     0.930560     0.333330    Biso  1.000000 Na
   Na69        1.0     0.013890     0.944440     0.666670    Biso  1.000000 Na
   O133        1.0     0.000000     0.916670     0.239590    Biso  1.000000 O
   O134        1.0     0.027780     0.930560     0.093750    Biso  1.000000 O
   O135        1.0     0.027780     0.930560     0.572920    Biso  1.000000 O
   O136        1.0     0.013890     0.944440     0.427080    Biso  1.000000 O
   O137        1.0     0.013890     0.944440     0.906250    Biso  1.000000 O
   O138        1.0     0.000000     0.916670     0.760410    Biso  1.000000 O
   Ni16        1.0     0.013890     0.944440     0.166670    Biso  1.000000 Ni
   Mn46        1.0     0.000000     0.916670     0.500000    Biso  1.000000 Mn
   Mn47        1.0     0.027780     0.930560     0.833330    Biso  1.000000 Mn
   Na70        1.0     0.000000     0.958330     0.000000    Biso  1.000000 Na
   Na71        1.0     0.027780     0.972220     0.333330    Biso  1.000000 Na
   Na72        1.0     0.013890     0.986110     0.666670    Biso  1.000000 Na
   O139        1.0     0.000000     0.958330     0.239590    Biso  1.000000 O
   O140        1.0     0.027780     0.972220     0.093750    Biso  1.000000 O
   O141        1.0     0.027780     0.972220     0.572920    Biso  1.000000 O
   O142        1.0     0.013890     0.986110     0.427080    Biso  1.000000 O
   O143        1.0     0.013890     0.986110     0.906250    Biso  1.000000 O
   O144        1.0     0.000000     0.958330     0.760410    Biso  1.000000 O
   Mn48        1.0     0.013890     0.986110     0.166670    Biso  1.000000 Mn
   Mn49        1.0     0.000000     0.958330     0.500000    Biso  1.000000 Mn
   Mn50        1.0     0.027780     0.972220     0.833330    Biso  1.000000 Mn
   Na73        1.0     0.041670     0.000000     0.000000    Biso  1.000000 Na
   Na74        1.0     0.069440     0.013890     0.333330    Biso  1.000000 Na
   Na75        1.0     0.055560     0.027780     0.666670    Biso  1.000000 Na
   O145        1.0     0.041670     0.000000     0.239590    Biso  1.000000 O
   O146        1.0     0.069440     0.013890     0.093750    Biso  1.000000 O
   O147        1.0     0.069440     0.013890     0.572920    Biso  1.000000 O
   O148        1.0     0.055560     0.027780     0.427080    Biso  1.000000 O
   O149        1.0     0.055560     0.027780     0.906250    Biso  1.000000 O
   O150        1.0     0.041670     0.000000     0.760410    Biso  1.000000 O
   Ni17        1.0     0.055560     0.027780     0.166670    Biso  1.000000 Ni
   Mn51        1.0     0.041670     0.000000     0.500000    Biso  1.000000 Mn
   Mn52        1.0     0.069440     0.013890     0.833330    Biso  1.000000 Mn
   Na76        1.0     0.041670     0.041670     0.000000    Biso  1.000000 Na
   Na77        1.0     0.069440     0.055560     0.333330    Biso  1.000000 Na
   Na78        1.0     0.055560     0.069440     0.666670    Biso  1.000000 Na
   O151        1.0     0.041670     0.041670     0.239590    Biso  1.000000 O
   O152        1.0     0.069440     0.055560     0.093750    Biso  1.000000 O
   O153        1.0     0.069440     0.055560     0.572920    Biso  1.000000 O
   O154        1.0     0.055560     0.069440     0.427080    Biso  1.000000 O
   O155        1.0     0.055560     0.069440     0.906250    Biso  1.000000 O
   O156        1.0     0.041670     0.041670     0.760410    Biso  1.000000 O
   Mn53        1.0     0.055560     0.069440     0.166670    Biso  1.000000 Mn
   Mn54        1.0     0.041670     0.041670     0.500000    Biso  1.000000 Mn
   Mn55        1.0     0.069440     0.055560     0.833330    Biso  1.000000 Mn
   Na79        1.0     0.041670     0.083330     0.000000    Biso  1.000000 Na
   Na80        1.0     0.069440     0.097220     0.333330    Biso  1.000000 Na
   Na81        1.0     0.055560     0.111110     0.666670    Biso  1.000000 Na
   O157        1.0     0.041670     0.083330     0.239590    Biso  1.000000 O
   O158        1.0     0.069440     0.097220     0.093750    Biso  1.000000 O
   O159        1.0     0.069440     0.097220     0.572920    Biso  1.000000 O
   O160        1.0     0.055560     0.111110     0.427080    Biso  1.000000 O
   O161        1.0     0.055560     0.111110     0.906250    Biso  1.000000 O
   O162        1.0     0.041670     0.083330     0.760410    Biso  1.000000 O
   Mn56        1.0     0.055560     0.111110     0.166670    Biso  1.000000 Mn
   Mn57        1.0     0.041670     0.083330     0.500000    Biso  1.000000 Mn
   Ni18        1.0     0.069440     0.097220     0.833330    Biso  1.000000 Ni
   Na82        1.0     0.041670     0.125000     0.000000    Biso  1.000000 Na
   Na83        1.0     0.069440     0.138890     0.333330    Biso  1.000000 Na
   Na84        1.0     0.055560     0.152780     0.666670    Biso  1.000000 Na
   O163        1.0     0.041670     0.125000     0.239590    Biso  1.000000 O
   O164        1.0     0.069440     0.138890     0.093750    Biso  1.000000 O
   O165        1.0     0.069440     0.138890     0.572920    Biso  1.000000 O
   O166        1.0     0.055560     0.152780     0.427080    Biso  1.000000 O
   O167        1.0     0.055560     0.152780     0.906250    Biso  1.000000 O
   O168        1.0     0.041670     0.125000     0.760410    Biso  1.000000 O
   Ni19        1.0     0.055560     0.152780     0.166670    Biso  1.000000 Ni
   Mn58        1.0     0.041670     0.125000     0.500000    Biso  1.000000 Mn
   Mn59        1.0     0.069440     0.138890     0.833330    Biso  1.000000 Mn
   Na85        1.0     0.041670     0.166670     0.000000    Biso  1.000000 Na
   Na86        1.0     0.069440     0.180560     0.333330    Biso  1.000000 Na
   Na87        1.0     0.055560     0.194440     0.666670    Biso  1.000000 Na
   O169        1.0     0.041670     0.166670     0.239590    Biso  1.000000 O
   O170        1.0     0.069440     0.180560     0.093750    Biso  1.000000 O
   O171        1.0     0.069440     0.180560     0.572920    Biso  1.000000 O
   O172        1.0     0.055560     0.194440     0.427080    Biso  1.000000 O
   O173        1.0     0.055560     0.194440     0.906250    Biso  1.000000 O
   O174        1.0     0.041670     0.166670     0.760410    Biso  1.000000 O
   Mn60        1.0     0.055560     0.194440     0.166670    Biso  1.000000 Mn
   Mn61        1.0     0.041670     0.166670     0.500000    Biso  1.000000 Mn
   Mn62        1.0     0.069440     0.180560     0.833330    Biso  1.000000 Mn
   Na88        1.0     0.041670     0.208330     0.000000    Biso  1.000000 Na
   Na89        1.0     0.069440     0.222220     0.333330    Biso  1.000000 Na
   Na90        1.0     0.055560     0.236110     0.666670    Biso  1.000000 Na
   O175        1.0     0.041670     0.208330     0.239590    Biso  1.000000 O
   O176        1.0     0.069440     0.222220     0.093750    Biso  1.000000 O
   O177        1.0     0.069440     0.222220     0.572920    Biso  1.000000 O
   O178        1.0     0.055560     0.236110     0.427080    Biso  1.000000 O
   O179        1.0     0.055560     0.236110     0.906250    Biso  1.000000 O
   O180        1.0     0.041670     0.208330     0.760410    Biso  1.000000 O
   Mn63        1.0     0.055560     0.236110     0.166670    Biso  1.000000 Mn
   Ni20        1.0     0.041670     0.208330     0.500000    Biso  1.000000 Ni
   Ni21        1.0     0.069440     0.222220     0.833330    Biso  1.000000 Ni
   Na91        1.0     0.041670     0.250000     0.000000    Biso  1.000000 Na
   Na92        1.0     0.069440     0.263890     0.333330    Biso  1.000000 Na
   Na93        1.0     0.055560     0.277780     0.666670    Biso  1.000000 Na
   O181        1.0     0.041670     0.250000     0.239590    Biso  1.000000 O
   O182        1.0     0.069440     0.263890     0.093750    Biso  1.000000 O
   O183        1.0     0.069440     0.263890     0.572920    Biso  1.000000 O
   O184        1.0     0.055560     0.277780     0.427080    Biso  1.000000 O
   O185        1.0     0.055560     0.277780     0.906250    Biso  1.000000 O
   O186        1.0     0.041670     0.250000     0.760410    Biso  1.000000 O
   Ni22        1.0     0.055560     0.277780     0.166670    Biso  1.000000 Ni
   Ni23        1.0     0.041670     0.250000     0.500000    Biso  1.000000 Ni
   Mn64        1.0     0.069440     0.263890     0.833330    Biso  1.000000 Mn
   Na94        1.0     0.041670     0.291670     0.000000    Biso  1.000000 Na
   Na95        1.0     0.069440     0.305560     0.333330    Biso  1.000000 Na
   Na96        1.0     0.055560     0.319440     0.666670    Biso  1.000000 Na
   O187        1.0     0.041670     0.291670     0.239590    Biso  1.000000 O
   O188        1.0     0.069440     0.305560     0.093750    Biso  1.000000 O
   O189        1.0     0.069440     0.305560     0.572920    Biso  1.000000 O
   O190        1.0     0.055560     0.319440     0.427080    Biso  1.000000 O
   O191        1.0     0.055560     0.319440     0.906250    Biso  1.000000 O
   O192        1.0     0.041670     0.291670     0.760410    Biso  1.000000 O
   Ni24        1.0     0.055560     0.319440     0.166670    Biso  1.000000 Ni
   Mn65        1.0     0.041670     0.291670     0.500000    Biso  1.000000 Mn
   Ni25        1.0     0.069440     0.305560     0.833330    Biso  1.000000 Ni
   Na97        1.0     0.041670     0.333330     0.000000    Biso  1.000000 Na
   Na98        1.0     0.069440     0.347220     0.333330    Biso  1.000000 Na
   Na99        1.0     0.055560     0.361110     0.666670    Biso  1.000000 Na
   O193        1.0     0.041670     0.333330     0.239590    Biso  1.000000 O
   O194        1.0     0.069440     0.347220     0.093750    Biso  1.000000 O
   O195        1.0     0.069440     0.347220     0.572920    Biso  1.000000 O
   O196        1.0     0.055560     0.361110     0.427080    Biso  1.000000 O
   O197        1.0     0.055560     0.361110     0.906250    Biso  1.000000 O
   O198        1.0     0.041670     0.333330     0.760410    Biso  1.000000 O
   Mn66        1.0     0.055560     0.361110     0.166670    Biso  1.000000 Mn
   Ni26        1.0     0.041670     0.333330     0.500000    Biso  1.000000 Ni
   Mn67        1.0     0.069440     0.347220     0.833330    Biso  1.000000 Mn
   Na100       1.0     0.041670     0.375000     0.000000    Biso  1.000000 Na
   Na101       1.0     0.069440     0.388890     0.333330    Biso  1.000000 Na
   Na102       1.0     0.055560     0.402780     0.666670    Biso  1.000000 Na
   O199        1.0     0.041670     0.375000     0.239590    Biso  1.000000 O
   O200        1.0     0.069440     0.388890     0.093750    Biso  1.000000 O
   O201        1.0     0.069440     0.388890     0.572920    Biso  1.000000 O
   O202        1.0     0.055560     0.402780     0.427080    Biso  1.000000 O
   O203        1.0     0.055560     0.402780     0.906250    Biso  1.000000 O
   O204        1.0     0.041670     0.375000     0.760410    Biso  1.000000 O
   Mn68        1.0     0.055560     0.402780     0.166670    Biso  1.000000 Mn
   Mn69        1.0     0.041670     0.375000     0.500000    Biso  1.000000 Mn
   Ni27        1.0     0.069440     0.388890     0.833330    Biso  1.000000 Ni
   Na103       1.0     0.041670     0.416670     0.000000    Biso  1.000000 Na
   Na104       1.0     0.069440     0.430560     0.333330    Biso  1.000000 Na
   Na105       1.0     0.055560     0.444440     0.666670    Biso  1.000000 Na
   O205        1.0     0.041670     0.416670     0.239590    Biso  1.000000 O
   O206        1.0     0.069440     0.430560     0.093750    Biso  1.000000 O
   O207        1.0     0.069440     0.430560     0.572920    Biso  1.000000 O
   O208        1.0     0.055560     0.444440     0.427080    Biso  1.000000 O
   O209        1.0     0.055560     0.444440     0.906250    Biso  1.000000 O
   O210        1.0     0.041670     0.416670     0.760410    Biso  1.000000 O
   Ni28        1.0     0.055560     0.444440     0.166670    Biso  1.000000 Ni
   Mn70        1.0     0.041670     0.416670     0.500000    Biso  1.000000 Mn
   Mn71        1.0     0.069440     0.430560     0.833330    Biso  1.000000 Mn
   Na106       1.0     0.041670     0.458330     0.000000    Biso  1.000000 Na
   Na107       1.0     0.069440     0.472220     0.333330    Biso  1.000000 Na
   Na108       1.0     0.055560     0.486110     0.666670    Biso  1.000000 Na
   O211        1.0     0.041670     0.458330     0.239590    Biso  1.000000 O
   O212        1.0     0.069440     0.472220     0.093750    Biso  1.000000 O
   O213        1.0     0.069440     0.472220     0.572920    Biso  1.000000 O
   O214        1.0     0.055560     0.486110     0.427080    Biso  1.000000 O
   O215        1.0     0.055560     0.486110     0.906250    Biso  1.000000 O
   O216        1.0     0.041670     0.458330     0.760410    Biso  1.000000 O
   Mn72        1.0     0.055560     0.486110     0.166670    Biso  1.000000 Mn
   Ni29        1.0     0.041670     0.458330     0.500000    Biso  1.000000 Ni
   Mn73        1.0     0.069440     0.472220     0.833330    Biso  1.000000 Mn
   Na109       1.0     0.041670     0.500000     0.000000    Biso  1.000000 Na
   Na110       1.0     0.069440     0.513890     0.333330    Biso  1.000000 Na
   Na111       1.0     0.055560     0.527780     0.666670    Biso  1.000000 Na
   O217        1.0     0.041670     0.500000     0.239590    Biso  1.000000 O
   O218        1.0     0.069440     0.513890     0.093750    Biso  1.000000 O
   O219        1.0     0.069440     0.513890     0.572920    Biso  1.000000 O
   O220        1.0     0.055560     0.527780     0.427080    Biso  1.000000 O
   O221        1.0     0.055560     0.527780     0.906250    Biso  1.000000 O
   O222        1.0     0.041670     0.500000     0.760410    Biso  1.000000 O
   Mn74        1.0     0.055560     0.527780     0.166670    Biso  1.000000 Mn
   Mn75        1.0     0.041670     0.500000     0.500000    Biso  1.000000 Mn
   Li7         1.0     0.069440     0.513890     0.833330    Biso  1.000000 Li
   Na112       1.0     0.041670     0.541670     0.000000    Biso  1.000000 Na
   Na113       1.0     0.069440     0.555560     0.333330    Biso  1.000000 Na
   Na114       1.0     0.055560     0.569440     0.666670    Biso  1.000000 Na
   O223        1.0     0.041670     0.541670     0.239590    Biso  1.000000 O
   O224        1.0     0.069440     0.555560     0.093750    Biso  1.000000 O
   O225        1.0     0.069440     0.555560     0.572920    Biso  1.000000 O
   O226        1.0     0.055560     0.569440     0.427080    Biso  1.000000 O
   O227        1.0     0.055560     0.569440     0.906250    Biso  1.000000 O
   O228        1.0     0.041670     0.541670     0.760410    Biso  1.000000 O
   Li8         1.0     0.055560     0.569440     0.166670    Biso  1.000000 Li
   Li9         1.0     0.041670     0.541670     0.500000    Biso  1.000000 Li
   Mn76        1.0     0.069440     0.555560     0.833330    Biso  1.000000 Mn
   Na115       1.0     0.041670     0.583330     0.000000    Biso  1.000000 Na
   Na116       1.0     0.069440     0.597220     0.333330    Biso  1.000000 Na
   Na117       1.0     0.055560     0.611110     0.666670    Biso  1.000000 Na
   O229        1.0     0.041670     0.583330     0.239590    Biso  1.000000 O
   O230        1.0     0.069440     0.597220     0.093750    Biso  1.000000 O
   O231        1.0     0.069440     0.597220     0.572920    Biso  1.000000 O
   O232        1.0     0.055560     0.611110     0.427080    Biso  1.000000 O
   O233        1.0     0.055560     0.611110     0.906250    Biso  1.000000 O
   O234        1.0     0.041670     0.583330     0.760410    Biso  1.000000 O
   Mn77        1.0     0.055560     0.611110     0.166670    Biso  1.000000 Mn
   Mn78        1.0     0.041670     0.583330     0.500000    Biso  1.000000 Mn
   Mn79        1.0     0.069440     0.597220     0.833330    Biso  1.000000 Mn
   Na118       1.0     0.041670     0.625000     0.000000    Biso  1.000000 Na
   Na119       1.0     0.069440     0.638890     0.333330    Biso  1.000000 Na
   Na120       1.0     0.055560     0.652780     0.666670    Biso  1.000000 Na
   O235        1.0     0.041670     0.625000     0.239590    Biso  1.000000 O
   O236        1.0     0.069440     0.638890     0.093750    Biso  1.000000 O
   O237        1.0     0.069440     0.638890     0.572920    Biso  1.000000 O
   O238        1.0     0.055560     0.652780     0.427080    Biso  1.000000 O
   O239        1.0     0.055560     0.652780     0.906250    Biso  1.000000 O
   O240        1.0     0.041670     0.625000     0.760410    Biso  1.000000 O
   Li10        1.0     0.055560     0.652780     0.166670    Biso  1.000000 Li
   Mn80        1.0     0.041670     0.625000     0.500000    Biso  1.000000 Mn
   Li11        1.0     0.069440     0.638890     0.833330    Biso  1.000000 Li
   Na121       1.0     0.041670     0.666670     0.000000    Biso  1.000000 Na
   Na122       1.0     0.069440     0.680560     0.333330    Biso  1.000000 Na
   Na123       1.0     0.055560     0.694440     0.666670    Biso  1.000000 Na
   O241        1.0     0.041670     0.666670     0.239590    Biso  1.000000 O
   O242        1.0     0.069440     0.680560     0.093750    Biso  1.000000 O
   O243        1.0     0.069440     0.680560     0.572920    Biso  1.000000 O
   O244        1.0     0.055560     0.694440     0.427080    Biso  1.000000 O
   O245        1.0     0.055560     0.694440     0.906250    Biso  1.000000 O
   O246        1.0     0.041670     0.666670     0.760410    Biso  1.000000 O
   Mn81        1.0     0.055560     0.694440     0.166670    Biso  1.000000 Mn
   Mn82        1.0     0.041670     0.666670     0.500000    Biso  1.000000 Mn
   Mn83        1.0     0.069440     0.680560     0.833330    Biso  1.000000 Mn
   Na124       1.0     0.041670     0.708330     0.000000    Biso  1.000000 Na
   Na125       1.0     0.069440     0.722220     0.333330    Biso  1.000000 Na
   Na126       1.0     0.055560     0.736110     0.666670    Biso  1.000000 Na
   O247        1.0     0.041670     0.708330     0.239590    Biso  1.000000 O
   O248        1.0     0.069440     0.722220     0.093750    Biso  1.000000 O
   O249        1.0     0.069440     0.722220     0.572920    Biso  1.000000 O
   O250        1.0     0.055560     0.736110     0.427080    Biso  1.000000 O
   O251        1.0     0.055560     0.736110     0.906250    Biso  1.000000 O
   O252        1.0     0.041670     0.708330     0.760410    Biso  1.000000 O
   Mn84        1.0     0.055560     0.736110     0.166670    Biso  1.000000 Mn
   Ni30        1.0     0.041670     0.708330     0.500000    Biso  1.000000 Ni
   Mn85        1.0     0.069440     0.722220     0.833330    Biso  1.000000 Mn
   Na127       1.0     0.041670     0.750000     0.000000    Biso  1.000000 Na
   Na128       1.0     0.069440     0.763890     0.333330    Biso  1.000000 Na
   Na129       1.0     0.055560     0.777780     0.666670    Biso  1.000000 Na
   O253        1.0     0.041670     0.750000     0.239590    Biso  1.000000 O
   O254        1.0     0.069440     0.763890     0.093750    Biso  1.000000 O
   O255        1.0     0.069440     0.763890     0.572920    Biso  1.000000 O
   O256        1.0     0.055560     0.777780     0.427080    Biso  1.000000 O
   O257        1.0     0.055560     0.777780     0.906250    Biso  1.000000 O
   O258        1.0     0.041670     0.750000     0.760410    Biso  1.000000 O
   Li12        1.0     0.055560     0.777780     0.166670    Biso  1.000000 Li
   Mn86        1.0     0.041670     0.750000     0.500000    Biso  1.000000 Mn
   Ni31        1.0     0.069440     0.763890     0.833330    Biso  1.000000 Ni
   Na130       1.0     0.041670     0.791670     0.000000    Biso  1.000000 Na
   Na131       1.0     0.069440     0.805560     0.333330    Biso  1.000000 Na
   Na132       1.0     0.055560     0.819440     0.666670    Biso  1.000000 Na
   O259        1.0     0.041670     0.791670     0.239590    Biso  1.000000 O
   O260        1.0     0.069440     0.805560     0.093750    Biso  1.000000 O
   O261        1.0     0.069440     0.805560     0.572920    Biso  1.000000 O
   O262        1.0     0.055560     0.819440     0.427080    Biso  1.000000 O
   O263        1.0     0.055560     0.819440     0.906250    Biso  1.000000 O
   O264        1.0     0.041670     0.791670     0.760410    Biso  1.000000 O
   Mn87        1.0     0.055560     0.819440     0.166670    Biso  1.000000 Mn
   Ni32        1.0     0.041670     0.791670     0.500000    Biso  1.000000 Ni
   Mn88        1.0     0.069440     0.805560     0.833330    Biso  1.000000 Mn
   Na133       1.0     0.041670     0.833330     0.000000    Biso  1.000000 Na
   Na134       1.0     0.069440     0.847220     0.333330    Biso  1.000000 Na
   Na135       1.0     0.055560     0.861110     0.666670    Biso  1.000000 Na
   O265        1.0     0.041670     0.833330     0.239590    Biso  1.000000 O
   O266        1.0     0.069440     0.847220     0.093750    Biso  1.000000 O
   O267        1.0     0.069440     0.847220     0.572920    Biso  1.000000 O
   O268        1.0     0.055560     0.861110     0.427080    Biso  1.000000 O
   O269        1.0     0.055560     0.861110     0.906250    Biso  1.000000 O
   O270        1.0     0.041670     0.833330     0.760410    Biso  1.000000 O
   Mn89        1.0     0.055560     0.861110     0.166670    Biso  1.000000 Mn
   Mn90        1.0     0.041670     0.833330     0.500000    Biso  1.000000 Mn
   Mn91        1.0     0.069440     0.847220     0.833330    Biso  1.000000 Mn
   Na136       1.0     0.041670     0.875000     0.000000    Biso  1.000000 Na
   Na137       1.0     0.069440     0.888890     0.333330    Biso  1.000000 Na
   Na138       1.0     0.055560     0.902780     0.666670    Biso  1.000000 Na
   O271        1.0     0.041670     0.875000     0.239590    Biso  1.000000 O
   O272        1.0     0.069440     0.888890     0.093750    Biso  1.000000 O
   O273        1.0     0.069440     0.888890     0.572920    Biso  1.000000 O
   O274        1.0     0.055560     0.902780     0.427080    Biso  1.000000 O
   O275        1.0     0.055560     0.902780     0.906250    Biso  1.000000 O
   O276        1.0     0.041670     0.875000     0.760410    Biso  1.000000 O
   Ni33        1.0     0.055560     0.902780     0.166670    Biso  1.000000 Ni
   Mn92        1.0     0.041670     0.875000     0.500000    Biso  1.000000 Mn
   Mn93        1.0     0.069440     0.888890     0.833330    Biso  1.000000 Mn
   Na139       1.0     0.041670     0.916670     0.000000    Biso  1.000000 Na
   Na140       1.0     0.069440     0.930560     0.333330    Biso  1.000000 Na
   Na141       1.0     0.055560     0.944440     0.666670    Biso  1.000000 Na
   O277        1.0     0.041670     0.916670     0.239590    Biso  1.000000 O
   O278        1.0     0.069440     0.930560     0.093750    Biso  1.000000 O
   O279        1.0     0.069440     0.930560     0.572920    Biso  1.000000 O
   O280        1.0     0.055560     0.944440     0.427080    Biso  1.000000 O
   O281        1.0     0.055560     0.944440     0.906250    Biso  1.000000 O
   O282        1.0     0.041670     0.916670     0.760410    Biso  1.000000 O
   Mn94        1.0     0.055560     0.944440     0.166670    Biso  1.000000 Mn
   Mn95        1.0     0.041670     0.916670     0.500000    Biso  1.000000 Mn
   Mn96        1.0     0.069440     0.930560     0.833330    Biso  1.000000 Mn
   Na142       1.0     0.041670     0.958330     0.000000    Biso  1.000000 Na
   Na143       1.0     0.069440     0.972220     0.333330    Biso  1.000000 Na
   Na144       1.0     0.055560     0.986110     0.666670    Biso  1.000000 Na
   O283        1.0     0.041670     0.958330     0.239590    Biso  1.000000 O
   O284        1.0     0.069440     0.972220     0.093750    Biso  1.000000 O
   O285        1.0     0.069440     0.972220     0.572920    Biso  1.000000 O
   O286        1.0     0.055560     0.986110     0.427080    Biso  1.000000 O
   O287        1.0     0.055560     0.986110     0.906250    Biso  1.000000 O
   O288        1.0     0.041670     0.958330     0.760410    Biso  1.000000 O
   Mn97        1.0     0.055560     0.986110     0.166670    Biso  1.000000 Mn
   Ni34        1.0     0.041670     0.958330     0.500000    Biso  1.000000 Ni
   Ni35        1.0     0.069440     0.972220     0.833330    Biso  1.000000 Ni
   Na145       1.0     0.083330     0.000000     0.000000    Biso  1.000000 Na
   Na146       1.0     0.111110     0.013890     0.333330    Biso  1.000000 Na
   Na147       1.0     0.097220     0.027780     0.666670    Biso  1.000000 Na
   O289        1.0     0.083330     0.000000     0.239590    Biso  1.000000 O
   O290        1.0     0.111110     0.013890     0.093750    Biso  1.000000 O
   O291        1.0     0.111110     0.013890     0.572920    Biso  1.000000 O
   O292        1.0     0.097220     0.027780     0.427080    Biso  1.000000 O
   O293        1.0     0.097220     0.027780     0.906250    Biso  1.000000 O
   O294        1.0     0.083330     0.000000     0.760410    Biso  1.000000 O
   Mn98        1.0     0.097220     0.027780     0.166670    Biso  1.000000 Mn
   Mn99        1.0     0.083330     0.000000     0.500000    Biso  1.000000 Mn
   Mn100       1.0     0.111110     0.013890     0.833330    Biso  1.000000 Mn
   Na148       1.0     0.083330     0.041670     0.000000    Biso  1.000000 Na
   Na149       1.0     0.111110     0.055560     0.333330    Biso  1.000000 Na
   Na150       1.0     0.097220     0.069440     0.666670    Biso  1.000000 Na
   O295        1.0     0.083330     0.041670     0.239590    Biso  1.000000 O
   O296        1.0     0.111110     0.055560     0.093750    Biso  1.000000 O
   O297        1.0     0.111110     0.055560     0.572920    Biso  1.000000 O
   O298        1.0     0.097220     0.069440     0.427080    Biso  1.000000 O
   O299        1.0     0.097220     0.069440     0.906250    Biso  1.000000 O
   O300        1.0     0.083330     0.041670     0.760410    Biso  1.000000 O
   Mn101       1.0     0.097220     0.069440     0.166670    Biso  1.000000 Mn
   Ni36        1.0     0.083330     0.041670     0.500000    Biso  1.000000 Ni
   Ni37        1.0     0.111110     0.055560     0.833330    Biso  1.000000 Ni
   Na151       1.0     0.083330     0.083330     0.000000    Biso  1.000000 Na
   Na152       1.0     0.111110     0.097220     0.333330    Biso  1.000000 Na
   Na153       1.0     0.097220     0.111110     0.666670    Biso  1.000000 Na
   O301        1.0     0.083330     0.083330     0.239590    Biso  1.000000 O
   O302        1.0     0.111110     0.097220     0.093750    Biso  1.000000 O
   O303        1.0     0.111110     0.097220     0.572920    Biso  1.000000 O
   O304        1.0     0.097220     0.111110     0.427080    Biso  1.000000 O
   O305        1.0     0.097220     0.111110     0.906250    Biso  1.000000 O
   O306        1.0     0.083330     0.083330     0.760410    Biso  1.000000 O
   Ni38        1.0     0.097220     0.111110     0.166670    Biso  1.000000 Ni
   Mn102       1.0     0.083330     0.083330     0.500000    Biso  1.000000 Mn
   Mn103       1.0     0.111110     0.097220     0.833330    Biso  1.000000 Mn
   Na154       1.0     0.083330     0.125000     0.000000    Biso  1.000000 Na
   Na155       1.0     0.111110     0.138890     0.333330    Biso  1.000000 Na
   Na156       1.0     0.097220     0.152780     0.666670    Biso  1.000000 Na
   O307        1.0     0.083330     0.125000     0.239590    Biso  1.000000 O
   O308        1.0     0.111110     0.138890     0.093750    Biso  1.000000 O
   O309        1.0     0.111110     0.138890     0.572920    Biso  1.000000 O
   O310        1.0     0.097220     0.152780     0.427080    Biso  1.000000 O
   O311        1.0     0.097220     0.152780     0.906250    Biso  1.000000 O
   O312        1.0     0.083330     0.125000     0.760410    Biso  1.000000 O
   Mn104       1.0     0.097220     0.152780     0.166670    Biso  1.000000 Mn
   Mn105       1.0     0.083330     0.125000     0.500000    Biso  1.000000 Mn
   Mn106       1.0     0.111110     0.138890     0.833330    Biso  1.000000 Mn
   Na157       1.0     0.083330     0.166670     0.000000    Biso  1.000000 Na
   Na158       1.0     0.111110     0.180560     0.333330    Biso  1.000000 Na
   Na159       1.0     0.097220     0.194440     0.666670    Biso  1.000000 Na
   O313        1.0     0.083330     0.166670     0.239590    Biso  1.000000 O
   O314        1.0     0.111110     0.180560     0.093750    Biso  1.000000 O
   O315        1.0     0.111110     0.180560     0.572920    Biso  1.000000 O
   O316        1.0     0.097220     0.194440     0.427080    Biso  1.000000 O
   O317        1.0     0.097220     0.194440     0.906250    Biso  1.000000 O
   O318        1.0     0.083330     0.166670     0.760410    Biso  1.000000 O
   Mn107       1.0     0.097220     0.194440     0.166670    Biso  1.000000 Mn
   Ni39        1.0     0.083330     0.166670     0.500000    Biso  1.000000 Ni
   Ni40        1.0     0.111110     0.180560     0.833330    Biso  1.000000 Ni
   Na160       1.0     0.083330     0.208330     0.000000    Biso  1.000000 Na
   Na161       1.0     0.111110     0.222220     0.333330    Biso  1.000000 Na
   Na162       1.0     0.097220     0.236110     0.666670    Biso  1.000000 Na
   O319        1.0     0.083330     0.208330     0.239590    Biso  1.000000 O
   O320        1.0     0.111110     0.222220     0.093750    Biso  1.000000 O
   O321        1.0     0.111110     0.222220     0.572920    Biso  1.000000 O
   O322        1.0     0.097220     0.236110     0.427080    Biso  1.000000 O
   O323        1.0     0.097220     0.236110     0.906250    Biso  1.000000 O
   O324        1.0     0.083330     0.208330     0.760410    Biso  1.000000 O
   Ni41        1.0     0.097220     0.236110     0.166670    Biso  1.000000 Ni
   Mn108       1.0     0.083330     0.208330     0.500000    Biso  1.000000 Mn
   Mn109       1.0     0.111110     0.222220     0.833330    Biso  1.000000 Mn
   Na163       1.0     0.083330     0.250000     0.000000    Biso  1.000000 Na
   Na164       1.0     0.111110     0.263890     0.333330    Biso  1.000000 Na
   Na165       1.0     0.097220     0.277780     0.666670    Biso  1.000000 Na
   O325        1.0     0.083330     0.250000     0.239590    Biso  1.000000 O
   O326        1.0     0.111110     0.263890     0.093750    Biso  1.000000 O
   O327        1.0     0.111110     0.263890     0.572920    Biso  1.000000 O
   O328        1.0     0.097220     0.277780     0.427080    Biso  1.000000 O
   O329        1.0     0.097220     0.277780     0.906250    Biso  1.000000 O
   O330        1.0     0.083330     0.250000     0.760410    Biso  1.000000 O
   Mn110       1.0     0.097220     0.277780     0.166670    Biso  1.000000 Mn
   Ni42        1.0     0.083330     0.250000     0.500000    Biso  1.000000 Ni
   Ni43        1.0     0.111110     0.263890     0.833330    Biso  1.000000 Ni
   Na166       1.0     0.083330     0.291670     0.000000    Biso  1.000000 Na
   Na167       1.0     0.111110     0.305560     0.333330    Biso  1.000000 Na
   Na168       1.0     0.097220     0.319440     0.666670    Biso  1.000000 Na
   O331        1.0     0.083330     0.291670     0.239590    Biso  1.000000 O
   O332        1.0     0.111110     0.305560     0.093750    Biso  1.000000 O
   O333        1.0     0.111110     0.305560     0.572920    Biso  1.000000 O
   O334        1.0     0.097220     0.319440     0.427080    Biso  1.000000 O
   O335        1.0     0.097220     0.319440     0.906250    Biso  1.000000 O
   O336        1.0     0.083330     0.291670     0.760410    Biso  1.000000 O
   Ni44        1.0     0.097220     0.319440     0.166670    Biso  1.000000 Ni
   Ni45        1.0     0.083330     0.291670     0.500000    Biso  1.000000 Ni
   Mn111       1.0     0.111110     0.305560     0.833330    Biso  1.000000 Mn
   Na169       1.0     0.083330     0.333330     0.000000    Biso  1.000000 Na
   Na170       1.0     0.111110     0.347220     0.333330    Biso  1.000000 Na
   Na171       1.0     0.097220     0.361110     0.666670    Biso  1.000000 Na
   O337        1.0     0.083330     0.333330     0.239590    Biso  1.000000 O
   O338        1.0     0.111110     0.347220     0.093750    Biso  1.000000 O
   O339        1.0     0.111110     0.347220     0.572920    Biso  1.000000 O
   O340        1.0     0.097220     0.361110     0.427080    Biso  1.000000 O
   O341        1.0     0.097220     0.361110     0.906250    Biso  1.000000 O
   O342        1.0     0.083330     0.333330     0.760410    Biso  1.000000 O
   Mn112       1.0     0.097220     0.361110     0.166670    Biso  1.000000 Mn
   Mn113       1.0     0.083330     0.333330     0.500000    Biso  1.000000 Mn
   Mn114       1.0     0.111110     0.347220     0.833330    Biso  1.000000 Mn
   Na172       1.0     0.083330     0.375000     0.000000    Biso  1.000000 Na
   Na173       1.0     0.111110     0.388890     0.333330    Biso  1.000000 Na
   Na174       1.0     0.097220     0.402780     0.666670    Biso  1.000000 Na
   O343        1.0     0.083330     0.375000     0.239590    Biso  1.000000 O
   O344        1.0     0.111110     0.388890     0.093750    Biso  1.000000 O
   O345        1.0     0.111110     0.388890     0.572920    Biso  1.000000 O
   O346        1.0     0.097220     0.402780     0.427080    Biso  1.000000 O
   O347        1.0     0.097220     0.402780     0.906250    Biso  1.000000 O
   O348        1.0     0.083330     0.375000     0.760410    Biso  1.000000 O
   Ni46        1.0     0.097220     0.402780     0.166670    Biso  1.000000 Ni
   Mn115       1.0     0.083330     0.375000     0.500000    Biso  1.000000 Mn
   Ni47        1.0     0.111110     0.388890     0.833330    Biso  1.000000 Ni
   Na175       1.0     0.083330     0.416670     0.000000    Biso  1.000000 Na
   Na176       1.0     0.111110     0.430560     0.333330    Biso  1.000000 Na
   Na177       1.0     0.097220     0.444440     0.666670    Biso  1.000000 Na
   O349        1.0     0.083330     0.416670     0.239590    Biso  1.000000 O
   O350        1.0     0.111110     0.430560     0.093750    Biso  1.000000 O
   O351        1.0     0.111110     0.430560     0.572920    Biso  1.000000 O
   O352        1.0     0.097220     0.444440     0.427080    Biso  1.000000 O
   O353        1.0     0.097220     0.444440     0.906250    Biso  1.000000 O
   O354        1.0     0.083330     0.416670     0.760410    Biso  1.000000 O
   Mn116       1.0     0.097220     0.444440     0.166670    Biso  1.000000 Mn
   Mn117       1.0     0.083330     0.416670     0.500000    Biso  1.000000 Mn
   Mn118       1.0     0.111110     0.430560     0.833330    Biso  1.000000 Mn
   Na178       1.0     0.083330     0.458330     0.000000    Biso  1.000000 Na
   Na179       1.0     0.111110     0.472220     0.333330    Biso  1.000000 Na
   Na180       1.0     0.097220     0.486110     0.666670    Biso  1.000000 Na
   O355        1.0     0.083330     0.458330     0.239590    Biso  1.000000 O
   O356        1.0     0.111110     0.472220     0.093750    Biso  1.000000 O
   O357        1.0     0.111110     0.472220     0.572920    Biso  1.000000 O
   O358        1.0     0.097220     0.486110     0.427080    Biso  1.000000 O
   O359        1.0     0.097220     0.486110     0.906250    Biso  1.000000 O
   O360        1.0     0.083330     0.458330     0.760410    Biso  1.000000 O
   Mn119       1.0     0.097220     0.486110     0.166670    Biso  1.000000 Mn
   Ni48        1.0     0.083330     0.458330     0.500000    Biso  1.000000 Ni
   Ni49        1.0     0.111110     0.472220     0.833330    Biso  1.000000 Ni
   Na181       1.0     0.083330     0.500000     0.000000    Biso  1.000000 Na
   Na182       1.0     0.111110     0.513890     0.333330    Biso  1.000000 Na
   Na183       1.0     0.097220     0.527780     0.666670    Biso  1.000000 Na
   O361        1.0     0.083330     0.500000     0.239590    Biso  1.000000 O
   O362        1.0     0.111110     0.513890     0.093750    Biso  1.000000 O
   O363        1.0     0.111110     0.513890     0.572920    Biso  1.000000 O
   O364        1.0     0.097220     0.527780     0.427080    Biso  1.000000 O
   O365        1.0     0.097220     0.527780     0.906250    Biso  1.000000 O
   O366        1.0     0.083330     0.500000     0.760410    Biso  1.000000 O
   Ni50        1.0     0.097220     0.527780     0.166670    Biso  1.000000 Ni
   Li13        1.0     0.083330     0.500000     0.500000    Biso  1.000000 Li
   Mn120       1.0     0.111110     0.513890     0.833330    Biso  1.000000 Mn
   Na184       1.0     0.083330     0.541670     0.000000    Biso  1.000000 Na
   Na185       1.0     0.111110     0.555560     0.333330    Biso  1.000000 Na
   Na186       1.0     0.097220     0.569440     0.666670    Biso  1.000000 Na
   O367        1.0     0.083330     0.541670     0.239590    Biso  1.000000 O
   O368        1.0     0.111110     0.555560     0.093750    Biso  1.000000 O
   O369        1.0     0.111110     0.555560     0.572920    Biso  1.000000 O
   O370        1.0     0.097220     0.569440     0.427080    Biso  1.000000 O
   O371        1.0     0.097220     0.569440     0.906250    Biso  1.000000 O
   O372        1.0     0.083330     0.541670     0.760410    Biso  1.000000 O
   Mn121       1.0     0.097220     0.569440     0.166670    Biso  1.000000 Mn
   Mn122       1.0     0.083330     0.541670     0.500000    Biso  1.000000 Mn
   Mn123       1.0     0.111110     0.555560     0.833330    Biso  1.000000 Mn
   Na187       1.0     0.083330     0.583330     0.000000    Biso  1.000000 Na
   Na188       1.0     0.111110     0.597220     0.333330    Biso  1.000000 Na
   Na189       1.0     0.097220     0.611110     0.666670    Biso  1.000000 Na
   O373        1.0     0.083330     0.583330     0.239590    Biso  1.000000 O
   O374        1.0     0.111110     0.597220     0.093750    Biso  1.000000 O
   O375        1.0     0.111110     0.597220     0.572920    Biso  1.000000 O
   O376        1.0     0.097220     0.611110     0.427080    Biso  1.000000 O
   O377        1.0     0.097220     0.611110     0.906250    Biso  1.000000 O
   O378        1.0     0.083330     0.583330     0.760410    Biso  1.000000 O
   Ni51        1.0     0.097220     0.611110     0.166670    Biso  1.000000 Ni
   Mn124       1.0     0.083330     0.583330     0.500000    Biso  1.000000 Mn
   Li14        1.0     0.111110     0.597220     0.833330    Biso  1.000000 Li
   Na190       1.0     0.083330     0.625000     0.000000    Biso  1.000000 Na
   Na191       1.0     0.111110     0.638890     0.333330    Biso  1.000000 Na
   Na192       1.0     0.097220     0.652780     0.666670    Biso  1.000000 Na
   O379        1.0     0.083330     0.625000     0.239590    Biso  1.000000 O
   O380        1.0     0.111110     0.638890     0.093750    Biso  1.000000 O
   O381        1.0     0.111110     0.638890     0.572920    Biso  1.000000 O
   O382        1.0     0.097220     0.652780     0.427080    Biso  1.000000 O
   O383        1.0     0.097220     0.652780     0.906250    Biso  1.000000 O
   O384        1.0     0.083330     0.625000     0.760410    Biso  1.000000 O
   Mn125       1.0     0.097220     0.652780     0.166670    Biso  1.000000 Mn
   Li15        1.0     0.083330     0.625000     0.500000    Biso  1.000000 Li
   Mn126       1.0     0.111110     0.638890     0.833330    Biso  1.000000 Mn
   Na193       1.0     0.083330     0.666670     0.000000    Biso  1.000000 Na
   Na194       1.0     0.111110     0.680560     0.333330    Biso  1.000000 Na
   Na195       1.0     0.097220     0.694440     0.666670    Biso  1.000000 Na
   O385        1.0     0.083330     0.666670     0.239590    Biso  1.000000 O
   O386        1.0     0.111110     0.680560     0.093750    Biso  1.000000 O
   O387        1.0     0.111110     0.680560     0.572920    Biso  1.000000 O
   O388        1.0     0.097220     0.694440     0.427080    Biso  1.000000 O
   O389        1.0     0.097220     0.694440     0.906250    Biso  1.000000 O
   O390        1.0     0.083330     0.666670     0.760410    Biso  1.000000 O
   Mn127       1.0     0.097220     0.694440     0.166670    Biso  1.000000 Mn
   Mn128       1.0     0.083330     0.666670     0.500000    Biso  1.000000 Mn
   Mn129       1.0     0.111110     0.680560     0.833330    Biso  1.000000 Mn
   Na196       1.0     0.083330     0.708330     0.000000    Biso  1.000000 Na
   Na197       1.0     0.111110     0.722220     0.333330    Biso  1.000000 Na
   Na198       1.0     0.097220     0.736110     0.666670    Biso  1.000000 Na
   O391        1.0     0.083330     0.708330     0.239590    Biso  1.000000 O
   O392        1.0     0.111110     0.722220     0.093750    Biso  1.000000 O
   O393        1.0     0.111110     0.722220     0.572920    Biso  1.000000 O
   O394        1.0     0.097220     0.736110     0.427080    Biso  1.000000 O
   O395        1.0     0.097220     0.736110     0.906250    Biso  1.000000 O
   O396        1.0     0.083330     0.708330     0.760410    Biso  1.000000 O
   Li16        1.0     0.097220     0.736110     0.166670    Biso  1.000000 Li
   Mn130       1.0     0.083330     0.708330     0.500000    Biso  1.000000 Mn
   Li17        1.0     0.111110     0.722220     0.833330    Biso  1.000000 Li
   Na199       1.0     0.083330     0.750000     0.000000    Biso  1.000000 Na
   Na200       1.0     0.111110     0.763890     0.333330    Biso  1.000000 Na
   Na201       1.0     0.097220     0.777780     0.666670    Biso  1.000000 Na
   O397        1.0     0.083330     0.750000     0.239590    Biso  1.000000 O
   O398        1.0     0.111110     0.763890     0.093750    Biso  1.000000 O
   O399        1.0     0.111110     0.763890     0.572920    Biso  1.000000 O
   O400        1.0     0.097220     0.777780     0.427080    Biso  1.000000 O
   O401        1.0     0.097220     0.777780     0.906250    Biso  1.000000 O
   O402        1.0     0.083330     0.750000     0.760410    Biso  1.000000 O
   Mn131       1.0     0.097220     0.777780     0.166670    Biso  1.000000 Mn
   Li18        1.0     0.083330     0.750000     0.500000    Biso  1.000000 Li
   Mn132       1.0     0.111110     0.763890     0.833330    Biso  1.000000 Mn
   Na202       1.0     0.083330     0.791670     0.000000    Biso  1.000000 Na
   Na203       1.0     0.111110     0.805560     0.333330    Biso  1.000000 Na
   Na204       1.0     0.097220     0.819440     0.666670    Biso  1.000000 Na
   O403        1.0     0.083330     0.791670     0.239590    Biso  1.000000 O
   O404        1.0     0.111110     0.805560     0.093750    Biso  1.000000 O
   O405        1.0     0.111110     0.805560     0.572920    Biso  1.000000 O
   O406        1.0     0.097220     0.819440     0.427080    Biso  1.000000 O
   O407        1.0     0.097220     0.819440     0.906250    Biso  1.000000 O
   O408        1.0     0.083330     0.791670     0.760410    Biso  1.000000 O
   Mn133       1.0     0.097220     0.819440     0.166670    Biso  1.000000 Mn
   Mn134       1.0     0.083330     0.791670     0.500000    Biso  1.000000 Mn
   Mn135       1.0     0.111110     0.805560     0.833330    Biso  1.000000 Mn
   Na205       1.0     0.083330     0.833330     0.000000    Biso  1.000000 Na
   Na206       1.0     0.111110     0.847220     0.333330    Biso  1.000000 Na
   Na207       1.0     0.097220     0.861110     0.666670    Biso  1.000000 Na
   O409        1.0     0.083330     0.833330     0.239590    Biso  1.000000 O
   O410        1.0     0.111110     0.847220     0.093750    Biso  1.000000 O
   O411        1.0     0.111110     0.847220     0.572920    Biso  1.000000 O
   O412        1.0     0.097220     0.861110     0.427080    Biso  1.000000 O
   O413        1.0     0.097220     0.861110     0.906250    Biso  1.000000 O
   O414        1.0     0.083330     0.833330     0.760410    Biso  1.000000 O
   Ni52        1.0     0.097220     0.861110     0.166670    Biso  1.000000 Ni
   Mn136       1.0     0.083330     0.833330     0.500000    Biso  1.000000 Mn
   Ni53        1.0     0.111110     0.847220     0.833330    Biso  1.000000 Ni
   Na208       1.0     0.083330     0.875000     0.000000    Biso  1.000000 Na
   Na209       1.0     0.111110     0.888890     0.333330    Biso  1.000000 Na
   Na210       1.0     0.097220     0.902780     0.666670    Biso  1.000000 Na
   O415        1.0     0.083330     0.875000     0.239590    Biso  1.000000 O
   O416        1.0     0.111110     0.888890     0.093750    Biso  1.000000 O
   O417        1.0     0.111110     0.888890     0.572920    Biso  1.000000 O
   O418        1.0     0.097220     0.902780     0.427080    Biso  1.000000 O
   O419        1.0     0.097220     0.902780     0.906250    Biso  1.000000 O
   O420        1.0     0.083330     0.875000     0.760410    Biso  1.000000 O
   Mn137       1.0     0.097220     0.902780     0.166670    Biso  1.000000 Mn
   Ni54        1.0     0.083330     0.875000     0.500000    Biso  1.000000 Ni
   Mn138       1.0     0.111110     0.888890     0.833330    Biso  1.000000 Mn
   Na211       1.0     0.083330     0.916670     0.000000    Biso  1.000000 Na
   Na212       1.0     0.111110     0.930560     0.333330    Biso  1.000000 Na
   Na213       1.0     0.097220     0.944440     0.666670    Biso  1.000000 Na
   O421        1.0     0.083330     0.916670     0.239590    Biso  1.000000 O
   O422        1.0     0.111110     0.930560     0.093750    Biso  1.000000 O
   O423        1.0     0.111110     0.930560     0.572920    Biso  1.000000 O
   O424        1.0     0.097220     0.944440     0.427080    Biso  1.000000 O
   O425        1.0     0.097220     0.944440     0.906250    Biso  1.000000 O
   O426        1.0     0.083330     0.916670     0.760410    Biso  1.000000 O
   Mn139       1.0     0.097220     0.944440     0.166670    Biso  1.000000 Mn
   Ni55        1.0     0.083330     0.916670     0.500000    Biso  1.000000 Ni
   Ni56        1.0     0.111110     0.930560     0.833330    Biso  1.000000 Ni
   Na214       1.0     0.083330     0.958330     0.000000    Biso  1.000000 Na
   Na215       1.0     0.111110     0.972220     0.333330    Biso  1.000000 Na
   Na216       1.0     0.097220     0.986110     0.666670    Biso  1.000000 Na
   O427        1.0     0.083330     0.958330     0.239590    Biso  1.000000 O
   O428        1.0     0.111110     0.972220     0.093750    Biso  1.000000 O
   O429        1.0     0.111110     0.972220     0.572920    Biso  1.000000 O
   O430        1.0     0.097220     0.986110     0.427080    Biso  1.000000 O
   O431        1.0     0.097220     0.986110     0.906250    Biso  1.000000 O
   O432        1.0     0.083330     0.958330     0.760410    Biso  1.000000 O
   Ni57        1.0     0.097220     0.986110     0.166670    Biso  1.000000 Ni
   Mn140       1.0     0.083330     0.958330     0.500000    Biso  1.000000 Mn
   Mn141       1.0     0.111110     0.972220     0.833330    Biso  1.000000 Mn
   Na217       1.0     0.125000     0.000000     0.000000    Biso  1.000000 Na
   Na218       1.0     0.152780     0.013890     0.333330    Biso  1.000000 Na
   Na219       1.0     0.138890     0.027780     0.666670    Biso  1.000000 Na
   O433        1.0     0.125000     0.000000     0.239590    Biso  1.000000 O
   O434        1.0     0.152780     0.013890     0.093750    Biso  1.000000 O
   O435        1.0     0.152780     0.013890     0.572920    Biso  1.000000 O
   O436        1.0     0.138890     0.027780     0.427080    Biso  1.000000 O
   O437        1.0     0.138890     0.027780     0.906250    Biso  1.000000 O
   O438        1.0     0.125000     0.000000     0.760410    Biso  1.000000 O
   Mn142       1.0     0.138890     0.027780     0.166670    Biso  1.000000 Mn
   Ni58        1.0     0.125000     0.000000     0.500000    Biso  1.000000 Ni
   Ni59        1.0     0.152780     0.013890     0.833330    Biso  1.000000 Ni
   Na220       1.0     0.125000     0.041670     0.000000    Biso  1.000000 Na
   Na221       1.0     0.152780     0.055560     0.333330    Biso  1.000000 Na
   Na222       1.0     0.138890     0.069440     0.666670    Biso  1.000000 Na
   O439        1.0     0.125000     0.041670     0.239590    Biso  1.000000 O
   O440        1.0     0.152780     0.055560     0.093750    Biso  1.000000 O
   O441        1.0     0.152780     0.055560     0.572920    Biso  1.000000 O
   O442        1.0     0.138890     0.069440     0.427080    Biso  1.000000 O
   O443        1.0     0.138890     0.069440     0.906250    Biso  1.000000 O
   O444        1.0     0.125000     0.041670     0.760410    Biso  1.000000 O
   Ni60        1.0     0.138890     0.069440     0.166670    Biso  1.000000 Ni
   Mn143       1.0     0.125000     0.041670     0.500000    Biso  1.000000 Mn
   Mn144       1.0     0.152780     0.055560     0.833330    Biso  1.000000 Mn
   Na223       1.0     0.125000     0.083330     0.000000    Biso  1.000000 Na
   Na224       1.0     0.152780     0.097220     0.333330    Biso  1.000000 Na
   Na225       1.0     0.138890     0.111110     0.666670    Biso  1.000000 Na
   O445        1.0     0.125000     0.083330     0.239590    Biso  1.000000 O
   O446        1.0     0.152780     0.097220     0.093750    Biso  1.000000 O
   O447        1.0     0.152780     0.097220     0.572920    Biso  1.000000 O
   O448        1.0     0.138890     0.111110     0.427080    Biso  1.000000 O
   O449        1.0     0.138890     0.111110     0.906250    Biso  1.000000 O
   O450        1.0     0.125000     0.083330     0.760410    Biso  1.000000 O
   Mn145       1.0     0.138890     0.111110     0.166670    Biso  1.000000 Mn
   Mn146       1.0     0.125000     0.083330     0.500000    Biso  1.000000 Mn
   Mn147       1.0     0.152780     0.097220     0.833330    Biso  1.000000 Mn
   Na226       1.0     0.125000     0.125000     0.000000    Biso  1.000000 Na
   Na227       1.0     0.152780     0.138890     0.333330    Biso  1.000000 Na
   Na228       1.0     0.138890     0.152780     0.666670    Biso  1.000000 Na
   O451        1.0     0.125000     0.125000     0.239590    Biso  1.000000 O
   O452        1.0     0.152780     0.138890     0.093750    Biso  1.000000 O
   O453        1.0     0.152780     0.138890     0.572920    Biso  1.000000 O
   O454        1.0     0.138890     0.152780     0.427080    Biso  1.000000 O
   O455        1.0     0.138890     0.152780     0.906250    Biso  1.000000 O
   O456        1.0     0.125000     0.125000     0.760410    Biso  1.000000 O
   Mn148       1.0     0.138890     0.152780     0.166670    Biso  1.000000 Mn
   Mn149       1.0     0.125000     0.125000     0.500000    Biso  1.000000 Mn
   Mn150       1.0     0.152780     0.138890     0.833330    Biso  1.000000 Mn
   Na229       1.0     0.125000     0.166670     0.000000    Biso  1.000000 Na
   Na230       1.0     0.152780     0.180560     0.333330    Biso  1.000000 Na
   Na231       1.0     0.138890     0.194440     0.666670    Biso  1.000000 Na
   O457        1.0     0.125000     0.166670     0.239590    Biso  1.000000 O
   O458        1.0     0.152780     0.180560     0.093750    Biso  1.000000 O
   O459        1.0     0.152780     0.180560     0.572920    Biso  1.000000 O
   O460        1.0     0.138890     0.194440     0.427080    Biso  1.000000 O
   O461        1.0     0.138890     0.194440     0.906250    Biso  1.000000 O
   O462        1.0     0.125000     0.166670     0.760410    Biso  1.000000 O
   Ni61        1.0     0.138890     0.194440     0.166670    Biso  1.000000 Ni
   Mn151       1.0     0.125000     0.166670     0.500000    Biso  1.000000 Mn
   Mn152       1.0     0.152780     0.180560     0.833330    Biso  1.000000 Mn
   Na232       1.0     0.125000     0.208330     0.000000    Biso  1.000000 Na
   Na233       1.0     0.152780     0.222220     0.333330    Biso  1.000000 Na
   Na234       1.0     0.138890     0.236110     0.666670    Biso  1.000000 Na
   O463        1.0     0.125000     0.208330     0.239590    Biso  1.000000 O
   O464        1.0     0.152780     0.222220     0.093750    Biso  1.000000 O
   O465        1.0     0.152780     0.222220     0.572920    Biso  1.000000 O
   O466        1.0     0.138890     0.236110     0.427080    Biso  1.000000 O
   O467        1.0     0.138890     0.236110     0.906250    Biso  1.000000 O
   O468        1.0     0.125000     0.208330     0.760410    Biso  1.000000 O
   Mn153       1.0     0.138890     0.236110     0.166670    Biso  1.000000 Mn
   Mn154       1.0     0.125000     0.208330     0.500000    Biso  1.000000 Mn
   Ni62        1.0     0.152780     0.222220     0.833330    Biso  1.000000 Ni
   Na235       1.0     0.125000     0.250000     0.000000    Biso  1.000000 Na
   Na236       1.0     0.152780     0.263890     0.333330    Biso  1.000000 Na
   Na237       1.0     0.138890     0.277780     0.666670    Biso  1.000000 Na
   O469        1.0     0.125000     0.250000     0.239590    Biso  1.000000 O
   O470        1.0     0.152780     0.263890     0.093750    Biso  1.000000 O
   O471        1.0     0.152780     0.263890     0.572920    Biso  1.000000 O
   O472        1.0     0.138890     0.277780     0.427080    Biso  1.000000 O
   O473        1.0     0.138890     0.277780     0.906250    Biso  1.000000 O
   O474        1.0     0.125000     0.250000     0.760410    Biso  1.000000 O
   Mn155       1.0     0.138890     0.277780     0.166670    Biso  1.000000 Mn
   Mn156       1.0     0.125000     0.250000     0.500000    Biso  1.000000 Mn
   Mn157       1.0     0.152780     0.263890     0.833330    Biso  1.000000 Mn
   Na238       1.0     0.125000     0.291670     0.000000    Biso  1.000000 Na
   Na239       1.0     0.152780     0.305560     0.333330    Biso  1.000000 Na
   Na240       1.0     0.138890     0.319440     0.666670    Biso  1.000000 Na
   O475        1.0     0.125000     0.291670     0.239590    Biso  1.000000 O
   O476        1.0     0.152780     0.305560     0.093750    Biso  1.000000 O
   O477        1.0     0.152780     0.305560     0.572920    Biso  1.000000 O
   O478        1.0     0.138890     0.319440     0.427080    Biso  1.000000 O
   O479        1.0     0.138890     0.319440     0.906250    Biso  1.000000 O
   O480        1.0     0.125000     0.291670     0.760410    Biso  1.000000 O
   Mn158       1.0     0.138890     0.319440     0.166670    Biso  1.000000 Mn
   Mn159       1.0     0.125000     0.291670     0.500000    Biso  1.000000 Mn
   Mn160       1.0     0.152780     0.305560     0.833330    Biso  1.000000 Mn
   Na241       1.0     0.125000     0.333330     0.000000    Biso  1.000000 Na
   Na242       1.0     0.152780     0.347220     0.333330    Biso  1.000000 Na
   Na243       1.0     0.138890     0.361110     0.666670    Biso  1.000000 Na
   O481        1.0     0.125000     0.333330     0.239590    Biso  1.000000 O
   O482        1.0     0.152780     0.347220     0.093750    Biso  1.000000 O
   O483        1.0     0.152780     0.347220     0.572920    Biso  1.000000 O
   O484        1.0     0.138890     0.361110     0.427080    Biso  1.000000 O
   O485        1.0     0.138890     0.361110     0.906250    Biso  1.000000 O
   O486        1.0     0.125000     0.333330     0.760410    Biso  1.000000 O
   Mn161       1.0     0.138890     0.361110     0.166670    Biso  1.000000 Mn
   Mn162       1.0     0.125000     0.333330     0.500000    Biso  1.000000 Mn
   Mn163       1.0     0.152780     0.347220     0.833330    Biso  1.000000 Mn
   Na244       1.0     0.125000     0.375000     0.000000    Biso  1.000000 Na
   Na245       1.0     0.152780     0.388890     0.333330    Biso  1.000000 Na
   Na246       1.0     0.138890     0.402780     0.666670    Biso  1.000000 Na
   O487        1.0     0.125000     0.375000     0.239590    Biso  1.000000 O
   O488        1.0     0.152780     0.388890     0.093750    Biso  1.000000 O
   O489        1.0     0.152780     0.388890     0.572920    Biso  1.000000 O
   O490        1.0     0.138890     0.402780     0.427080    Biso  1.000000 O
   O491        1.0     0.138890     0.402780     0.906250    Biso  1.000000 O
   O492        1.0     0.125000     0.375000     0.760410    Biso  1.000000 O
   Ni63        1.0     0.138890     0.402780     0.166670    Biso  1.000000 Ni
   Ni64        1.0     0.125000     0.375000     0.500000    Biso  1.000000 Ni
   Ni65        1.0     0.152780     0.388890     0.833330    Biso  1.000000 Ni
   Na247       1.0     0.125000     0.416670     0.000000    Biso  1.000000 Na
   Na248       1.0     0.152780     0.430560     0.333330    Biso  1.000000 Na
   Na249       1.0     0.138890     0.444440     0.666670    Biso  1.000000 Na
   O493        1.0     0.125000     0.416670     0.239590    Biso  1.000000 O
   O494        1.0     0.152780     0.430560     0.093750    Biso  1.000000 O
   O495        1.0     0.152780     0.430560     0.572920    Biso  1.000000 O
   O496        1.0     0.138890     0.444440     0.427080    Biso  1.000000 O
   O497        1.0     0.138890     0.444440     0.906250    Biso  1.000000 O
   O498        1.0     0.125000     0.416670     0.760410    Biso  1.000000 O
   Ni66        1.0     0.138890     0.444440     0.166670    Biso  1.000000 Ni
   Ni67        1.0     0.125000     0.416670     0.500000    Biso  1.000000 Ni
   Mn164       1.0     0.152780     0.430560     0.833330    Biso  1.000000 Mn
   Na250       1.0     0.125000     0.458330     0.000000    Biso  1.000000 Na
   Na251       1.0     0.152780     0.472220     0.333330    Biso  1.000000 Na
   Na252       1.0     0.138890     0.486110     0.666670    Biso  1.000000 Na
   O499        1.0     0.125000     0.458330     0.239590    Biso  1.000000 O
   O500        1.0     0.152780     0.472220     0.093750    Biso  1.000000 O
   O501        1.0     0.152780     0.472220     0.572920    Biso  1.000000 O
   O502        1.0     0.138890     0.486110     0.427080    Biso  1.000000 O
   O503        1.0     0.138890     0.486110     0.906250    Biso  1.000000 O
   O504        1.0     0.125000     0.458330     0.760410    Biso  1.000000 O
   Mn165       1.0     0.138890     0.486110     0.166670    Biso  1.000000 Mn
   Mn166       1.0     0.125000     0.458330     0.500000    Biso  1.000000 Mn
   Mn167       1.0     0.152780     0.472220     0.833330    Biso  1.000000 Mn
   Na253       1.0     0.125000     0.500000     0.000000    Biso  1.000000 Na
   Na254       1.0     0.152780     0.513890     0.333330    Biso  1.000000 Na
   Na255       1.0     0.138890     0.527780     0.666670    Biso  1.000000 Na
   O505        1.0     0.125000     0.500000     0.239590    Biso  1.000000 O
   O506        1.0     0.152780     0.513890     0.093750    Biso  1.000000 O
   O507        1.0     0.152780     0.513890     0.572920    Biso  1.000000 O
   O508        1.0     0.138890     0.527780     0.427080    Biso  1.000000 O
   O509        1.0     0.138890     0.527780     0.906250    Biso  1.000000 O
   O510        1.0     0.125000     0.500000     0.760410    Biso  1.000000 O
   Mn168       1.0     0.138890     0.527780     0.166670    Biso  1.000000 Mn
   Mn169       1.0     0.125000     0.500000     0.500000    Biso  1.000000 Mn
   Mn170       1.0     0.152780     0.513890     0.833330    Biso  1.000000 Mn
   Na256       1.0     0.125000     0.541670     0.000000    Biso  1.000000 Na
   Na257       1.0     0.152780     0.555560     0.333330    Biso  1.000000 Na
   Na258       1.0     0.138890     0.569440     0.666670    Biso  1.000000 Na
   O511        1.0     0.125000     0.541670     0.239590    Biso  1.000000 O
   O512        1.0     0.152780     0.555560     0.093750    Biso  1.000000 O
   O513        1.0     0.152780     0.555560     0.572920    Biso  1.000000 O
   O514        1.0     0.138890     0.569440     0.427080    Biso  1.000000 O
   O515        1.0     0.138890     0.569440     0.906250    Biso  1.000000 O
   O516        1.0     0.125000     0.541670     0.760410    Biso  1.000000 O
   Ni68        1.0     0.138890     0.569440     0.166670    Biso  1.000000 Ni
   Mn171       1.0     0.125000     0.541670     0.500000    Biso  1.000000 Mn
   Li19        1.0     0.152780     0.555560     0.833330    Biso  1.000000 Li
   Na259       1.0     0.125000     0.583330     0.000000    Biso  1.000000 Na
   Na260       1.0     0.152780     0.597220     0.333330    Biso  1.000000 Na
   Na261       1.0     0.138890     0.611110     0.666670    Biso  1.000000 Na
   O517        1.0     0.125000     0.583330     0.239590    Biso  1.000000 O
   O518        1.0     0.152780     0.597220     0.093750    Biso  1.000000 O
   O519        1.0     0.152780     0.597220     0.572920    Biso  1.000000 O
   O520        1.0     0.138890     0.611110     0.427080    Biso  1.000000 O
   O521        1.0     0.138890     0.611110     0.906250    Biso  1.000000 O
   O522        1.0     0.125000     0.583330     0.760410    Biso  1.000000 O
   Mn172       1.0     0.138890     0.611110     0.166670    Biso  1.000000 Mn
   Li20        1.0     0.125000     0.583330     0.500000    Biso  1.000000 Li
   Mn173       1.0     0.152780     0.597220     0.833330    Biso  1.000000 Mn
   Na262       1.0     0.125000     0.625000     0.000000    Biso  1.000000 Na
   Na263       1.0     0.152780     0.638890     0.333330    Biso  1.000000 Na
   Na264       1.0     0.138890     0.652780     0.666670    Biso  1.000000 Na
   O523        1.0     0.125000     0.625000     0.239590    Biso  1.000000 O
   O524        1.0     0.152780     0.638890     0.093750    Biso  1.000000 O
   O525        1.0     0.152780     0.638890     0.572920    Biso  1.000000 O
   O526        1.0     0.138890     0.652780     0.427080    Biso  1.000000 O
   O527        1.0     0.138890     0.652780     0.906250    Biso  1.000000 O
   O528        1.0     0.125000     0.625000     0.760410    Biso  1.000000 O
   Mn174       1.0     0.138890     0.652780     0.166670    Biso  1.000000 Mn
   Mn175       1.0     0.125000     0.625000     0.500000    Biso  1.000000 Mn
   Mn176       1.0     0.152780     0.638890     0.833330    Biso  1.000000 Mn
   Na265       1.0     0.125000     0.666670     0.000000    Biso  1.000000 Na
   Na266       1.0     0.152780     0.680560     0.333330    Biso  1.000000 Na
   Na267       1.0     0.138890     0.694440     0.666670    Biso  1.000000 Na
   O529        1.0     0.125000     0.666670     0.239590    Biso  1.000000 O
   O530        1.0     0.152780     0.680560     0.093750    Biso  1.000000 O
   O531        1.0     0.152780     0.680560     0.572920    Biso  1.000000 O
   O532        1.0     0.138890     0.694440     0.427080    Biso  1.000000 O
   O533        1.0     0.138890     0.694440     0.906250    Biso  1.000000 O
   O534        1.0     0.125000     0.666670     0.760410    Biso  1.000000 O
   Li21        1.0     0.138890     0.694440     0.166670    Biso  1.000000 Li
   Mn177       1.0     0.125000     0.666670     0.500000    Biso  1.000000 Mn
   Li22        1.0     0.152780     0.680560     0.833330    Biso  1.000000 Li
   Na268       1.0     0.125000     0.708330     0.000000    Biso  1.000000 Na
   Na269       1.0     0.152780     0.722220     0.333330    Biso  1.000000 Na
   Na270       1.0     0.138890     0.736110     0.666670    Biso  1.000000 Na
   O535        1.0     0.125000     0.708330     0.239590    Biso  1.000000 O
   O536        1.0     0.152780     0.722220     0.093750    Biso  1.000000 O
   O537        1.0     0.152780     0.722220     0.572920    Biso  1.000000 O
   O538        1.0     0.138890     0.736110     0.427080    Biso  1.000000 O
   O539        1.0     0.138890     0.736110     0.906250    Biso  1.000000 O
   O540        1.0     0.125000     0.708330     0.760410    Biso  1.000000 O
   Mn178       1.0     0.138890     0.736110     0.166670    Biso  1.000000 Mn
   Li23        1.0     0.125000     0.708330     0.500000    Biso  1.000000 Li
   Mn179       1.0     0.152780     0.722220     0.833330    Biso  1.000000 Mn
   Na271       1.0     0.125000     0.750000     0.000000    Biso  1.000000 Na
   Na272       1.0     0.152780     0.763890     0.333330    Biso  1.000000 Na
   Na273       1.0     0.138890     0.777780     0.666670    Biso  1.000000 Na
   O541        1.0     0.125000     0.750000     0.239590    Biso  1.000000 O
   O542        1.0     0.152780     0.763890     0.093750    Biso  1.000000 O
   O543        1.0     0.152780     0.763890     0.572920    Biso  1.000000 O
   O544        1.0     0.138890     0.777780     0.427080    Biso  1.000000 O
   O545        1.0     0.138890     0.777780     0.906250    Biso  1.000000 O
   O546        1.0     0.125000     0.750000     0.760410    Biso  1.000000 O
   Mn180       1.0     0.138890     0.777780     0.166670    Biso  1.000000 Mn
   Mn181       1.0     0.125000     0.750000     0.500000    Biso  1.000000 Mn
   Mn182       1.0     0.152780     0.763890     0.833330    Biso  1.000000 Mn
   Na274       1.0     0.125000     0.791670     0.000000    Biso  1.000000 Na
   Na275       1.0     0.152780     0.805560     0.333330    Biso  1.000000 Na
   Na276       1.0     0.138890     0.819440     0.666670    Biso  1.000000 Na
   O547        1.0     0.125000     0.791670     0.239590    Biso  1.000000 O
   O548        1.0     0.152780     0.805560     0.093750    Biso  1.000000 O
   O549        1.0     0.152780     0.805560     0.572920    Biso  1.000000 O
   O550        1.0     0.138890     0.819440     0.427080    Biso  1.000000 O
   O551        1.0     0.138890     0.819440     0.906250    Biso  1.000000 O
   O552        1.0     0.125000     0.791670     0.760410    Biso  1.000000 O
   Li24        1.0     0.138890     0.819440     0.166670    Biso  1.000000 Li
   Mn183       1.0     0.125000     0.791670     0.500000    Biso  1.000000 Mn
   Li25        1.0     0.152780     0.805560     0.833330    Biso  1.000000 Li
   Na277       1.0     0.125000     0.833330     0.000000    Biso  1.000000 Na
   Na278       1.0     0.152780     0.847220     0.333330    Biso  1.000000 Na
   Na279       1.0     0.138890     0.861110     0.666670    Biso  1.000000 Na
   O553        1.0     0.125000     0.833330     0.239590    Biso  1.000000 O
   O554        1.0     0.152780     0.847220     0.093750    Biso  1.000000 O
   O555        1.0     0.152780     0.847220     0.572920    Biso  1.000000 O
   O556        1.0     0.138890     0.861110     0.427080    Biso  1.000000 O
   O557        1.0     0.138890     0.861110     0.906250    Biso  1.000000 O
   O558        1.0     0.125000     0.833330     0.760410    Biso  1.000000 O
   Mn184       1.0     0.138890     0.861110     0.166670    Biso  1.000000 Mn
   Ni69        1.0     0.125000     0.833330     0.500000    Biso  1.000000 Ni
   Mn185       1.0     0.152780     0.847220     0.833330    Biso  1.000000 Mn
   Na280       1.0     0.125000     0.875000     0.000000    Biso  1.000000 Na
   Na281       1.0     0.152780     0.888890     0.333330    Biso  1.000000 Na
   Na282       1.0     0.138890     0.902780     0.666670    Biso  1.000000 Na
   O559        1.0     0.125000     0.875000     0.239590    Biso  1.000000 O
   O560        1.0     0.152780     0.888890     0.093750    Biso  1.000000 O
   O561        1.0     0.152780     0.888890     0.572920    Biso  1.000000 O
   O562        1.0     0.138890     0.902780     0.427080    Biso  1.000000 O
   O563        1.0     0.138890     0.902780     0.906250    Biso  1.000000 O
   O564        1.0     0.125000     0.875000     0.760410    Biso  1.000000 O
   Mn186       1.0     0.138890     0.902780     0.166670    Biso  1.000000 Mn
   Mn187       1.0     0.125000     0.875000     0.500000    Biso  1.000000 Mn
   Ni70        1.0     0.152780     0.888890     0.833330    Biso  1.000000 Ni
   Na283       1.0     0.125000     0.916670     0.000000    Biso  1.000000 Na
   Na284       1.0     0.152780     0.930560     0.333330    Biso  1.000000 Na
   Na285       1.0     0.138890     0.944440     0.666670    Biso  1.000000 Na
   O565        1.0     0.125000     0.916670     0.239590    Biso  1.000000 O
   O566        1.0     0.152780     0.930560     0.093750    Biso  1.000000 O
   O567        1.0     0.152780     0.930560     0.572920    Biso  1.000000 O
   O568        1.0     0.138890     0.944440     0.427080    Biso  1.000000 O
   O569        1.0     0.138890     0.944440     0.906250    Biso  1.000000 O
   O570        1.0     0.125000     0.916670     0.760410    Biso  1.000000 O
   Ni71        1.0     0.138890     0.944440     0.166670    Biso  1.000000 Ni
   Mn188       1.0     0.125000     0.916670     0.500000    Biso  1.000000 Mn
   Mn189       1.0     0.152780     0.930560     0.833330    Biso  1.000000 Mn
   Na286       1.0     0.125000     0.958330     0.000000    Biso  1.000000 Na
   Na287       1.0     0.152780     0.972220     0.333330    Biso  1.000000 Na
   Na288       1.0     0.138890     0.986110     0.666670    Biso  1.000000 Na
   O571        1.0     0.125000     0.958330     0.239590    Biso  1.000000 O
   O572        1.0     0.152780     0.972220     0.093750    Biso  1.000000 O
   O573        1.0     0.152780     0.972220     0.572920    Biso  1.000000 O
   O574        1.0     0.138890     0.986110     0.427080    Biso  1.000000 O
   O575        1.0     0.138890     0.986110     0.906250    Biso  1.000000 O
   O576        1.0     0.125000     0.958330     0.760410    Biso  1.000000 O
   Mn190       1.0     0.138890     0.986110     0.166670    Biso  1.000000 Mn
   Mn191       1.0     0.125000     0.958330     0.500000    Biso  1.000000 Mn
   Mn192       1.0     0.152780     0.972220     0.833330    Biso  1.000000 Mn
   Na289       1.0     0.166670     0.000000     0.000000    Biso  1.000000 Na
   Na290       1.0     0.194440     0.013890     0.333330    Biso  1.000000 Na
   Na291       1.0     0.180560     0.027780     0.666670    Biso  1.000000 Na
   O577        1.0     0.166670     0.000000     0.239590    Biso  1.000000 O
   O578        1.0     0.194440     0.013890     0.093750    Biso  1.000000 O
   O579        1.0     0.194440     0.013890     0.572920    Biso  1.000000 O
   O580        1.0     0.180560     0.027780     0.427080    Biso  1.000000 O
   O581        1.0     0.180560     0.027780     0.906250    Biso  1.000000 O
   O582        1.0     0.166670     0.000000     0.760410    Biso  1.000000 O
   Ni72        1.0     0.180560     0.027780     0.166670    Biso  1.000000 Ni
   Mn193       1.0     0.166670     0.000000     0.500000    Biso  1.000000 Mn
   Mn194       1.0     0.194440     0.013890     0.833330    Biso  1.000000 Mn
   Na292       1.0     0.166670     0.041670     0.000000    Biso  1.000000 Na
   Na293       1.0     0.194440     0.055560     0.333330    Biso  1.000000 Na
   Na294       1.0     0.180560     0.069440     0.666670    Biso  1.000000 Na
   O583        1.0     0.166670     0.041670     0.239590    Biso  1.000000 O
   O584        1.0     0.194440     0.055560     0.093750    Biso  1.000000 O
   O585        1.0     0.194440     0.055560     0.572920    Biso  1.000000 O
   O586        1.0     0.180560     0.069440     0.427080    Biso  1.000000 O
   O587        1.0     0.180560     0.069440     0.906250    Biso  1.000000 O
   O588        1.0     0.166670     0.041670     0.760410    Biso  1.000000 O
   Mn195       1.0     0.180560     0.069440     0.166670    Biso  1.000000 Mn
   Mn196       1.0     0.166670     0.041670     0.500000    Biso  1.000000 Mn
   Mn197       1.0     0.194440     0.055560     0.833330    Biso  1.000000 Mn
   Na295       1.0     0.166670     0.083330     0.000000    Biso  1.000000 Na
   Na296       1.0     0.194440     0.097220     0.333330    Biso  1.000000 Na
   Na297       1.0     0.180560     0.111110     0.666670    Biso  1.000000 Na
   O589        1.0     0.166670     0.083330     0.239590    Biso  1.000000 O
   O590        1.0     0.194440     0.097220     0.093750    Biso  1.000000 O
   O591        1.0     0.194440     0.097220     0.572920    Biso  1.000000 O
   O592        1.0     0.180560     0.111110     0.427080    Biso  1.000000 O
   O593        1.0     0.180560     0.111110     0.906250    Biso  1.000000 O
   O594        1.0     0.166670     0.083330     0.760410    Biso  1.000000 O
   Mn198       1.0     0.180560     0.111110     0.166670    Biso  1.000000 Mn
   Ni73        1.0     0.166670     0.083330     0.500000    Biso  1.000000 Ni
   Ni74        1.0     0.194440     0.097220     0.833330    Biso  1.000000 Ni
   Na298       1.0     0.166670     0.125000     0.000000    Biso  1.000000 Na
   Na299       1.0     0.194440     0.138890     0.333330    Biso  1.000000 Na
   Na300       1.0     0.180560     0.152780     0.666670    Biso  1.000000 Na
   O595        1.0     0.166670     0.125000     0.239590    Biso  1.000000 O
   O596        1.0     0.194440     0.138890     0.093750    Biso  1.000000 O
   O597        1.0     0.194440     0.138890     0.572920    Biso  1.000000 O
   O598        1.0     0.180560     0.152780     0.427080    Biso  1.000000 O
   O599        1.0     0.180560     0.152780     0.906250    Biso  1.000000 O
   O600        1.0     0.166670     0.125000     0.760410    Biso  1.000000 O
   Ni75        1.0     0.180560     0.152780     0.166670    Biso  1.000000 Ni
   Ni76        1.0     0.166670     0.125000     0.500000    Biso  1.000000 Ni
   Mn199       1.0     0.194440     0.138890     0.833330    Biso  1.000000 Mn
   Na301       1.0     0.166670     0.166670     0.000000    Biso  1.000000 Na
   Na302       1.0     0.194440     0.180560     0.333330    Biso  1.000000 Na
   Na303       1.0     0.180560     0.194440     0.666670    Biso  1.000000 Na
   O601        1.0     0.166670     0.166670     0.239590    Biso  1.000000 O
   O602        1.0     0.194440     0.180560     0.093750    Biso  1.000000 O
   O603        1.0     0.194440     0.180560     0.572920    Biso  1.000000 O
   O604        1.0     0.180560     0.194440     0.427080    Biso  1.000000 O
   O605        1.0     0.180560     0.194440     0.906250    Biso  1.000000 O
   O606        1.0     0.166670     0.166670     0.760410    Biso  1.000000 O
   Mn200       1.0     0.180560     0.194440     0.166670    Biso  1.000000 Mn
   Ni77        1.0     0.166670     0.166670     0.500000    Biso  1.000000 Ni
   Ni78        1.0     0.194440     0.180560     0.833330    Biso  1.000000 Ni
   Na304       1.0     0.166670     0.208330     0.000000    Biso  1.000000 Na
   Na305       1.0     0.194440     0.222220     0.333330    Biso  1.000000 Na
   Na306       1.0     0.180560     0.236110     0.666670    Biso  1.000000 Na
   O607        1.0     0.166670     0.208330     0.239590    Biso  1.000000 O
   O608        1.0     0.194440     0.222220     0.093750    Biso  1.000000 O
   O609        1.0     0.194440     0.222220     0.572920    Biso  1.000000 O
   O610        1.0     0.180560     0.236110     0.427080    Biso  1.000000 O
   O611        1.0     0.180560     0.236110     0.906250    Biso  1.000000 O
   O612        1.0     0.166670     0.208330     0.760410    Biso  1.000000 O
   Mn201       1.0     0.180560     0.236110     0.166670    Biso  1.000000 Mn
   Mn202       1.0     0.166670     0.208330     0.500000    Biso  1.000000 Mn
   Mn203       1.0     0.194440     0.222220     0.833330    Biso  1.000000 Mn
   Na307       1.0     0.166670     0.250000     0.000000    Biso  1.000000 Na
   Na308       1.0     0.194440     0.263890     0.333330    Biso  1.000000 Na
   Na309       1.0     0.180560     0.277780     0.666670    Biso  1.000000 Na
   O613        1.0     0.166670     0.250000     0.239590    Biso  1.000000 O
   O614        1.0     0.194440     0.263890     0.093750    Biso  1.000000 O
   O615        1.0     0.194440     0.263890     0.572920    Biso  1.000000 O
   O616        1.0     0.180560     0.277780     0.427080    Biso  1.000000 O
   O617        1.0     0.180560     0.277780     0.906250    Biso  1.000000 O
   O618        1.0     0.166670     0.250000     0.760410    Biso  1.000000 O
   Ni79        1.0     0.180560     0.277780     0.166670    Biso  1.000000 Ni
   Ni80        1.0     0.166670     0.250000     0.500000    Biso  1.000000 Ni
   Mn204       1.0     0.194440     0.263890     0.833330    Biso  1.000000 Mn
   Na310       1.0     0.166670     0.291670     0.000000    Biso  1.000000 Na
   Na311       1.0     0.194440     0.305560     0.333330    Biso  1.000000 Na
   Na312       1.0     0.180560     0.319440     0.666670    Biso  1.000000 Na
   O619        1.0     0.166670     0.291670     0.239590    Biso  1.000000 O
   O620        1.0     0.194440     0.305560     0.093750    Biso  1.000000 O
   O621        1.0     0.194440     0.305560     0.572920    Biso  1.000000 O
   O622        1.0     0.180560     0.319440     0.427080    Biso  1.000000 O
   O623        1.0     0.180560     0.319440     0.906250    Biso  1.000000 O
   O624        1.0     0.166670     0.291670     0.760410    Biso  1.000000 O
   Mn205       1.0     0.180560     0.319440     0.166670    Biso  1.000000 Mn
   Mn206       1.0     0.166670     0.291670     0.500000    Biso  1.000000 Mn
   Ni81        1.0     0.194440     0.305560     0.833330    Biso  1.000000 Ni
   Na313       1.0     0.166670     0.333330     0.000000    Biso  1.000000 Na
   Na314       1.0     0.194440     0.347220     0.333330    Biso  1.000000 Na
   Na315       1.0     0.180560     0.361110     0.666670    Biso  1.000000 Na
   O625        1.0     0.166670     0.333330     0.239590    Biso  1.000000 O
   O626        1.0     0.194440     0.347220     0.093750    Biso  1.000000 O
   O627        1.0     0.194440     0.347220     0.572920    Biso  1.000000 O
   O628        1.0     0.180560     0.361110     0.427080    Biso  1.000000 O
   O629        1.0     0.180560     0.361110     0.906250    Biso  1.000000 O
   O630        1.0     0.166670     0.333330     0.760410    Biso  1.000000 O
   Ni82        1.0     0.180560     0.361110     0.166670    Biso  1.000000 Ni
   Mn207       1.0     0.166670     0.333330     0.500000    Biso  1.000000 Mn
   Mn208       1.0     0.194440     0.347220     0.833330    Biso  1.000000 Mn
   Na316       1.0     0.166670     0.375000     0.000000    Biso  1.000000 Na
   Na317       1.0     0.194440     0.388890     0.333330    Biso  1.000000 Na
   Na318       1.0     0.180560     0.402780     0.666670    Biso  1.000000 Na
   O631        1.0     0.166670     0.375000     0.239590    Biso  1.000000 O
   O632        1.0     0.194440     0.388890     0.093750    Biso  1.000000 O
   O633        1.0     0.194440     0.388890     0.572920    Biso  1.000000 O
   O634        1.0     0.180560     0.402780     0.427080    Biso  1.000000 O
   O635        1.0     0.180560     0.402780     0.906250    Biso  1.000000 O
   O636        1.0     0.166670     0.375000     0.760410    Biso  1.000000 O
   Mn209       1.0     0.180560     0.402780     0.166670    Biso  1.000000 Mn
   Ni83        1.0     0.166670     0.375000     0.500000    Biso  1.000000 Ni
   Mn210       1.0     0.194440     0.388890     0.833330    Biso  1.000000 Mn
   Na319       1.0     0.166670     0.416670     0.000000    Biso  1.000000 Na
   Na320       1.0     0.194440     0.430560     0.333330    Biso  1.000000 Na
   Na321       1.0     0.180560     0.444440     0.666670    Biso  1.000000 Na
   O637        1.0     0.166670     0.416670     0.239590    Biso  1.000000 O
   O638        1.0     0.194440     0.430560     0.093750    Biso  1.000000 O
   O639        1.0     0.194440     0.430560     0.572920    Biso  1.000000 O
   O640        1.0     0.180560     0.444440     0.427080    Biso  1.000000 O
   O641        1.0     0.180560     0.444440     0.906250    Biso  1.000000 O
   O642        1.0     0.166670     0.416670     0.760410    Biso  1.000000 O
   Mn211       1.0     0.180560     0.444440     0.166670    Biso  1.000000 Mn
   Ni84        1.0     0.166670     0.416670     0.500000    Biso  1.000000 Ni
   Mn212       1.0     0.194440     0.430560     0.833330    Biso  1.000000 Mn
   Na322       1.0     0.166670     0.458330     0.000000    Biso  1.000000 Na
   Na323       1.0     0.194440     0.472220     0.333330    Biso  1.000000 Na
   Na324       1.0     0.180560     0.486110     0.666670    Biso  1.000000 Na
   O643        1.0     0.166670     0.458330     0.239590    Biso  1.000000 O
   O644        1.0     0.194440     0.472220     0.093750    Biso  1.000000 O
   O645        1.0     0.194440     0.472220     0.572920    Biso  1.000000 O
   O646        1.0     0.180560     0.486110     0.427080    Biso  1.000000 O
   O647        1.0     0.180560     0.486110     0.906250    Biso  1.000000 O
   O648        1.0     0.166670     0.458330     0.760410    Biso  1.000000 O
   Mn213       1.0     0.180560     0.486110     0.166670    Biso  1.000000 Mn
   Mn214       1.0     0.166670     0.458330     0.500000    Biso  1.000000 Mn
   Ni85        1.0     0.194440     0.472220     0.833330    Biso  1.000000 Ni
   Na325       1.0     0.166670     0.500000     0.000000    Biso  1.000000 Na
   Na326       1.0     0.194440     0.513890     0.333330    Biso  1.000000 Na
   Na327       1.0     0.180560     0.527780     0.666670    Biso  1.000000 Na
   O649        1.0     0.166670     0.500000     0.239590    Biso  1.000000 O
   O650        1.0     0.194440     0.513890     0.093750    Biso  1.000000 O
   O651        1.0     0.194440     0.513890     0.572920    Biso  1.000000 O
   O652        1.0     0.180560     0.527780     0.427080    Biso  1.000000 O
   O653        1.0     0.180560     0.527780     0.906250    Biso  1.000000 O
   O654        1.0     0.166670     0.500000     0.760410    Biso  1.000000 O
   Ni86        1.0     0.180560     0.527780     0.166670    Biso  1.000000 Ni
   Mn215       1.0     0.166670     0.500000     0.500000    Biso  1.000000 Mn
   Mn216       1.0     0.194440     0.513890     0.833330    Biso  1.000000 Mn
   Na328       1.0     0.166670     0.541670     0.000000    Biso  1.000000 Na
   Na329       1.0     0.194440     0.555560     0.333330    Biso  1.000000 Na
   Na330       1.0     0.180560     0.569440     0.666670    Biso  1.000000 Na
   O655        1.0     0.166670     0.541670     0.239590    Biso  1.000000 O
   O656        1.0     0.194440     0.555560     0.093750    Biso  1.000000 O
   O657        1.0     0.194440     0.555560     0.572920    Biso  1.000000 O
   O658        1.0     0.180560     0.569440     0.427080    Biso  1.000000 O
   O659        1.0     0.180560     0.569440     0.906250    Biso  1.000000 O
   O660        1.0     0.166670     0.541670     0.760410    Biso  1.000000 O
   Mn217       1.0     0.180560     0.569440     0.166670    Biso  1.000000 Mn
   Ni87        1.0     0.166670     0.541670     0.500000    Biso  1.000000 Ni
   Mn218       1.0     0.194440     0.555560     0.833330    Biso  1.000000 Mn
   Na331       1.0     0.166670     0.583330     0.000000    Biso  1.000000 Na
   Na332       1.0     0.194440     0.597220     0.333330    Biso  1.000000 Na
   Na333       1.0     0.180560     0.611110     0.666670    Biso  1.000000 Na
   O661        1.0     0.166670     0.583330     0.239590    Biso  1.000000 O
   O662        1.0     0.194440     0.597220     0.093750    Biso  1.000000 O
   O663        1.0     0.194440     0.597220     0.572920    Biso  1.000000 O
   O664        1.0     0.180560     0.611110     0.427080    Biso  1.000000 O
   O665        1.0     0.180560     0.611110     0.906250    Biso  1.000000 O
   O666        1.0     0.166670     0.583330     0.760410    Biso  1.000000 O
   Mn219       1.0     0.180560     0.611110     0.166670    Biso  1.000000 Mn
   Mn220       1.0     0.166670     0.583330     0.500000    Biso  1.000000 Mn
   Mn221       1.0     0.194440     0.597220     0.833330    Biso  1.000000 Mn
   Na334       1.0     0.166670     0.625000     0.000000    Biso  1.000000 Na
   Na335       1.0     0.194440     0.638890     0.333330    Biso  1.000000 Na
   Na336       1.0     0.180560     0.652780     0.666670    Biso  1.000000 Na
   O667        1.0     0.166670     0.625000     0.239590    Biso  1.000000 O
   O668        1.0     0.194440     0.638890     0.093750    Biso  1.000000 O
   O669        1.0     0.194440     0.638890     0.572920    Biso  1.000000 O
   O670        1.0     0.180560     0.652780     0.427080    Biso  1.000000 O
   O671        1.0     0.180560     0.652780     0.906250    Biso  1.000000 O
   O672        1.0     0.166670     0.625000     0.760410    Biso  1.000000 O
   Li26        1.0     0.180560     0.652780     0.166670    Biso  1.000000 Li
   Mn222       1.0     0.166670     0.625000     0.500000    Biso  1.000000 Mn
   Li27        1.0     0.194440     0.638890     0.833330    Biso  1.000000 Li
   Na337       1.0     0.166670     0.666670     0.000000    Biso  1.000000 Na
   Na338       1.0     0.194440     0.680560     0.333330    Biso  1.000000 Na
   Na339       1.0     0.180560     0.694440     0.666670    Biso  1.000000 Na
   O673        1.0     0.166670     0.666670     0.239590    Biso  1.000000 O
   O674        1.0     0.194440     0.680560     0.093750    Biso  1.000000 O
   O675        1.0     0.194440     0.680560     0.572920    Biso  1.000000 O
   O676        1.0     0.180560     0.694440     0.427080    Biso  1.000000 O
   O677        1.0     0.180560     0.694440     0.906250    Biso  1.000000 O
   O678        1.0     0.166670     0.666670     0.760410    Biso  1.000000 O
   Mn223       1.0     0.180560     0.694440     0.166670    Biso  1.000000 Mn
   Li28        1.0     0.166670     0.666670     0.500000    Biso  1.000000 Li
   Mn224       1.0     0.194440     0.680560     0.833330    Biso  1.000000 Mn
   Na340       1.0     0.166670     0.708330     0.000000    Biso  1.000000 Na
   Na341       1.0     0.194440     0.722220     0.333330    Biso  1.000000 Na
   Na342       1.0     0.180560     0.736110     0.666670    Biso  1.000000 Na
   O679        1.0     0.166670     0.708330     0.239590    Biso  1.000000 O
   O680        1.0     0.194440     0.722220     0.093750    Biso  1.000000 O
   O681        1.0     0.194440     0.722220     0.572920    Biso  1.000000 O
   O682        1.0     0.180560     0.736110     0.427080    Biso  1.000000 O
   O683        1.0     0.180560     0.736110     0.906250    Biso  1.000000 O
   O684        1.0     0.166670     0.708330     0.760410    Biso  1.000000 O
   Mn225       1.0     0.180560     0.736110     0.166670    Biso  1.000000 Mn
   Mn226       1.0     0.166670     0.708330     0.500000    Biso  1.000000 Mn
   Mn227       1.0     0.194440     0.722220     0.833330    Biso  1.000000 Mn
   Na343       1.0     0.166670     0.750000     0.000000    Biso  1.000000 Na
   Na344       1.0     0.194440     0.763890     0.333330    Biso  1.000000 Na
   Na345       1.0     0.180560     0.777780     0.666670    Biso  1.000000 Na
   O685        1.0     0.166670     0.750000     0.239590    Biso  1.000000 O
   O686        1.0     0.194440     0.763890     0.093750    Biso  1.000000 O
   O687        1.0     0.194440     0.763890     0.572920    Biso  1.000000 O
   O688        1.0     0.180560     0.777780     0.427080    Biso  1.000000 O
   O689        1.0     0.180560     0.777780     0.906250    Biso  1.000000 O
   O690        1.0     0.166670     0.750000     0.760410    Biso  1.000000 O
   Li29        1.0     0.180560     0.777780     0.166670    Biso  1.000000 Li
   Mn228       1.0     0.166670     0.750000     0.500000    Biso  1.000000 Mn
   Li30        1.0     0.194440     0.763890     0.833330    Biso  1.000000 Li
   Na346       1.0     0.166670     0.791670     0.000000    Biso  1.000000 Na
   Na347       1.0     0.194440     0.805560     0.333330    Biso  1.000000 Na
   Na348       1.0     0.180560     0.819440     0.666670    Biso  1.000000 Na
   O691        1.0     0.166670     0.791670     0.239590    Biso  1.000000 O
   O692        1.0     0.194440     0.805560     0.093750    Biso  1.000000 O
   O693        1.0     0.194440     0.805560     0.572920    Biso  1.000000 O
   O694        1.0     0.180560     0.819440     0.427080    Biso  1.000000 O
   O695        1.0     0.180560     0.819440     0.906250    Biso  1.000000 O
   O696        1.0     0.166670     0.791670     0.760410    Biso  1.000000 O
   Mn229       1.0     0.180560     0.819440     0.166670    Biso  1.000000 Mn
   Li31        1.0     0.166670     0.791670     0.500000    Biso  1.000000 Li
   Mn230       1.0     0.194440     0.805560     0.833330    Biso  1.000000 Mn
   Na349       1.0     0.166670     0.833330     0.000000    Biso  1.000000 Na
   Na350       1.0     0.194440     0.847220     0.333330    Biso  1.000000 Na
   Na351       1.0     0.180560     0.861110     0.666670    Biso  1.000000 Na
   O697        1.0     0.166670     0.833330     0.239590    Biso  1.000000 O
   O698        1.0     0.194440     0.847220     0.093750    Biso  1.000000 O
   O699        1.0     0.194440     0.847220     0.572920    Biso  1.000000 O
   O700        1.0     0.180560     0.861110     0.427080    Biso  1.000000 O
   O701        1.0     0.180560     0.861110     0.906250    Biso  1.000000 O
   O702        1.0     0.166670     0.833330     0.760410    Biso  1.000000 O
   Mn231       1.0     0.180560     0.861110     0.166670    Biso  1.000000 Mn
   Mn232       1.0     0.166670     0.833330     0.500000    Biso  1.000000 Mn
   Ni88        1.0     0.194440     0.847220     0.833330    Biso  1.000000 Ni
   Na352       1.0     0.166670     0.875000     0.000000    Biso  1.000000 Na
   Na353       1.0     0.194440     0.888890     0.333330    Biso  1.000000 Na
   Na354       1.0     0.180560     0.902780     0.666670    Biso  1.000000 Na
   O703        1.0     0.166670     0.875000     0.239590    Biso  1.000000 O
   O704        1.0     0.194440     0.888890     0.093750    Biso  1.000000 O
   O705        1.0     0.194440     0.888890     0.572920    Biso  1.000000 O
   O706        1.0     0.180560     0.902780     0.427080    Biso  1.000000 O
   O707        1.0     0.180560     0.902780     0.906250    Biso  1.000000 O
   O708        1.0     0.166670     0.875000     0.760410    Biso  1.000000 O
   Ni89        1.0     0.180560     0.902780     0.166670    Biso  1.000000 Ni
   Mn233       1.0     0.166670     0.875000     0.500000    Biso  1.000000 Mn
   Mn234       1.0     0.194440     0.888890     0.833330    Biso  1.000000 Mn
   Na355       1.0     0.166670     0.916670     0.000000    Biso  1.000000 Na
   Na356       1.0     0.194440     0.930560     0.333330    Biso  1.000000 Na
   Na357       1.0     0.180560     0.944440     0.666670    Biso  1.000000 Na
   O709        1.0     0.166670     0.916670     0.239590    Biso  1.000000 O
   O710        1.0     0.194440     0.930560     0.093750    Biso  1.000000 O
   O711        1.0     0.194440     0.930560     0.572920    Biso  1.000000 O
   O712        1.0     0.180560     0.944440     0.427080    Biso  1.000000 O
   O713        1.0     0.180560     0.944440     0.906250    Biso  1.000000 O
   O714        1.0     0.166670     0.916670     0.760410    Biso  1.000000 O
   Mn235       1.0     0.180560     0.944440     0.166670    Biso  1.000000 Mn
   Ni90        1.0     0.166670     0.916670     0.500000    Biso  1.000000 Ni
   Mn236       1.0     0.194440     0.930560     0.833330    Biso  1.000000 Mn
   Na358       1.0     0.166670     0.958330     0.000000    Biso  1.000000 Na
   Na359       1.0     0.194440     0.972220     0.333330    Biso  1.000000 Na
   Na360       1.0     0.180560     0.986110     0.666670    Biso  1.000000 Na
   O715        1.0     0.166670     0.958330     0.239590    Biso  1.000000 O
   O716        1.0     0.194440     0.972220     0.093750    Biso  1.000000 O
   O717        1.0     0.194440     0.972220     0.572920    Biso  1.000000 O
   O718        1.0     0.180560     0.986110     0.427080    Biso  1.000000 O
   O719        1.0     0.180560     0.986110     0.906250    Biso  1.000000 O
   O720        1.0     0.166670     0.958330     0.760410    Biso  1.000000 O
   Mn237       1.0     0.180560     0.986110     0.166670    Biso  1.000000 Mn
   Ni91        1.0     0.166670     0.958330     0.500000    Biso  1.000000 Ni
   Ni92        1.0     0.194440     0.972220     0.833330    Biso  1.000000 Ni
   Na361       1.0     0.208330     0.000000     0.000000    Biso  1.000000 Na
   Na362       1.0     0.236110     0.013890     0.333330    Biso  1.000000 Na
   Na363       1.0     0.222220     0.027780     0.666670    Biso  1.000000 Na
   O721        1.0     0.208330     0.000000     0.239590    Biso  1.000000 O
   O722        1.0     0.236110     0.013890     0.093750    Biso  1.000000 O
   O723        1.0     0.236110     0.013890     0.572920    Biso  1.000000 O
   O724        1.0     0.222220     0.027780     0.427080    Biso  1.000000 O
   O725        1.0     0.222220     0.027780     0.906250    Biso  1.000000 O
   O726        1.0     0.208330     0.000000     0.760410    Biso  1.000000 O
   Mn238       1.0     0.222220     0.027780     0.166670    Biso  1.000000 Mn
   Mn239       1.0     0.208330     0.000000     0.500000    Biso  1.000000 Mn
   Mn240       1.0     0.236110     0.013890     0.833330    Biso  1.000000 Mn
   Na364       1.0     0.208330     0.041670     0.000000    Biso  1.000000 Na
   Na365       1.0     0.236110     0.055560     0.333330    Biso  1.000000 Na
   Na366       1.0     0.222220     0.069440     0.666670    Biso  1.000000 Na
   O727        1.0     0.208330     0.041670     0.239590    Biso  1.000000 O
   O728        1.0     0.236110     0.055560     0.093750    Biso  1.000000 O
   O729        1.0     0.236110     0.055560     0.572920    Biso  1.000000 O
   O730        1.0     0.222220     0.069440     0.427080    Biso  1.000000 O
   O731        1.0     0.222220     0.069440     0.906250    Biso  1.000000 O
   O732        1.0     0.208330     0.041670     0.760410    Biso  1.000000 O
   Mn241       1.0     0.222220     0.069440     0.166670    Biso  1.000000 Mn
   Mn242       1.0     0.208330     0.041670     0.500000    Biso  1.000000 Mn
   Ni93        1.0     0.236110     0.055560     0.833330    Biso  1.000000 Ni
   Na367       1.0     0.208330     0.083330     0.000000    Biso  1.000000 Na
   Na368       1.0     0.236110     0.097220     0.333330    Biso  1.000000 Na
   Na369       1.0     0.222220     0.111110     0.666670    Biso  1.000000 Na
   O733        1.0     0.208330     0.083330     0.239590    Biso  1.000000 O
   O734        1.0     0.236110     0.097220     0.093750    Biso  1.000000 O
   O735        1.0     0.236110     0.097220     0.572920    Biso  1.000000 O
   O736        1.0     0.222220     0.111110     0.427080    Biso  1.000000 O
   O737        1.0     0.222220     0.111110     0.906250    Biso  1.000000 O
   O738        1.0     0.208330     0.083330     0.760410    Biso  1.000000 O
   Li32        1.0     0.222220     0.111110     0.166670    Biso  1.000000 Li
   Ni94        1.0     0.208330     0.083330     0.500000    Biso  1.000000 Ni
   Mn243       1.0     0.236110     0.097220     0.833330    Biso  1.000000 Mn
   Na370       1.0     0.208330     0.125000     0.000000    Biso  1.000000 Na
   Na371       1.0     0.236110     0.138890     0.333330    Biso  1.000000 Na
   Na372       1.0     0.222220     0.152780     0.666670    Biso  1.000000 Na
   O739        1.0     0.208330     0.125000     0.239590    Biso  1.000000 O
   O740        1.0     0.236110     0.138890     0.093750    Biso  1.000000 O
   O741        1.0     0.236110     0.138890     0.572920    Biso  1.000000 O
   O742        1.0     0.222220     0.152780     0.427080    Biso  1.000000 O
   O743        1.0     0.222220     0.152780     0.906250    Biso  1.000000 O
   O744        1.0     0.208330     0.125000     0.760410    Biso  1.000000 O
   Mn244       1.0     0.222220     0.152780     0.166670    Biso  1.000000 Mn
   Mn245       1.0     0.208330     0.125000     0.500000    Biso  1.000000 Mn
   Mn246       1.0     0.236110     0.138890     0.833330    Biso  1.000000 Mn
   Na373       1.0     0.208330     0.166670     0.000000    Biso  1.000000 Na
   Na374       1.0     0.236110     0.180560     0.333330    Biso  1.000000 Na
   Na375       1.0     0.222220     0.194440     0.666670    Biso  1.000000 Na
   O745        1.0     0.208330     0.166670     0.239590    Biso  1.000000 O
   O746        1.0     0.236110     0.180560     0.093750    Biso  1.000000 O
   O747        1.0     0.236110     0.180560     0.572920    Biso  1.000000 O
   O748        1.0     0.222220     0.194440     0.427080    Biso  1.000000 O
   O749        1.0     0.222220     0.194440     0.906250    Biso  1.000000 O
   O750        1.0     0.208330     0.166670     0.760410    Biso  1.000000 O
   Mn247       1.0     0.222220     0.194440     0.166670    Biso  1.000000 Mn
   Mn248       1.0     0.208330     0.166670     0.500000    Biso  1.000000 Mn
   Ni95        1.0     0.236110     0.180560     0.833330    Biso  1.000000 Ni
   Na376       1.0     0.208330     0.208330     0.000000    Biso  1.000000 Na
   Na377       1.0     0.236110     0.222220     0.333330    Biso  1.000000 Na
   Na378       1.0     0.222220     0.236110     0.666670    Biso  1.000000 Na
   O751        1.0     0.208330     0.208330     0.239590    Biso  1.000000 O
   O752        1.0     0.236110     0.222220     0.093750    Biso  1.000000 O
   O753        1.0     0.236110     0.222220     0.572920    Biso  1.000000 O
   O754        1.0     0.222220     0.236110     0.427080    Biso  1.000000 O
   O755        1.0     0.222220     0.236110     0.906250    Biso  1.000000 O
   O756        1.0     0.208330     0.208330     0.760410    Biso  1.000000 O
   Ni96        1.0     0.222220     0.236110     0.166670    Biso  1.000000 Ni
   Ni97        1.0     0.208330     0.208330     0.500000    Biso  1.000000 Ni
   Mn249       1.0     0.236110     0.222220     0.833330    Biso  1.000000 Mn
   Na379       1.0     0.208330     0.250000     0.000000    Biso  1.000000 Na
   Na380       1.0     0.236110     0.263890     0.333330    Biso  1.000000 Na
   Na381       1.0     0.222220     0.277780     0.666670    Biso  1.000000 Na
   O757        1.0     0.208330     0.250000     0.239590    Biso  1.000000 O
   O758        1.0     0.236110     0.263890     0.093750    Biso  1.000000 O
   O759        1.0     0.236110     0.263890     0.572920    Biso  1.000000 O
   O760        1.0     0.222220     0.277780     0.427080    Biso  1.000000 O
   O761        1.0     0.222220     0.277780     0.906250    Biso  1.000000 O
   O762        1.0     0.208330     0.250000     0.760410    Biso  1.000000 O
   Mn250       1.0     0.222220     0.277780     0.166670    Biso  1.000000 Mn
   Mn251       1.0     0.208330     0.250000     0.500000    Biso  1.000000 Mn
   Ni98        1.0     0.236110     0.263890     0.833330    Biso  1.000000 Ni
   Na382       1.0     0.208330     0.291670     0.000000    Biso  1.000000 Na
   Na383       1.0     0.236110     0.305560     0.333330    Biso  1.000000 Na
   Na384       1.0     0.222220     0.319440     0.666670    Biso  1.000000 Na
   O763        1.0     0.208330     0.291670     0.239590    Biso  1.000000 O
   O764        1.0     0.236110     0.305560     0.093750    Biso  1.000000 O
   O765        1.0     0.236110     0.305560     0.572920    Biso  1.000000 O
   O766        1.0     0.222220     0.319440     0.427080    Biso  1.000000 O
   O767        1.0     0.222220     0.319440     0.906250    Biso  1.000000 O
   O768        1.0     0.208330     0.291670     0.760410    Biso  1.000000 O
   Mn252       1.0     0.222220     0.319440     0.166670    Biso  1.000000 Mn
   Mn253       1.0     0.208330     0.291670     0.500000    Biso  1.000000 Mn
   Mn254       1.0     0.236110     0.305560     0.833330    Biso  1.000000 Mn
   Na385       1.0     0.208330     0.333330     0.000000    Biso  1.000000 Na
   Na386       1.0     0.236110     0.347220     0.333330    Biso  1.000000 Na
   Na387       1.0     0.222220     0.361110     0.666670    Biso  1.000000 Na
   O769        1.0     0.208330     0.333330     0.239590    Biso  1.000000 O
   O770        1.0     0.236110     0.347220     0.093750    Biso  1.000000 O
   O771        1.0     0.236110     0.347220     0.572920    Biso  1.000000 O
   O772        1.0     0.222220     0.361110     0.427080    Biso  1.000000 O
   O773        1.0     0.222220     0.361110     0.906250    Biso  1.000000 O
   O774        1.0     0.208330     0.333330     0.760410    Biso  1.000000 O
   Mn255       1.0     0.222220     0.361110     0.166670    Biso  1.000000 Mn
   Ni99        1.0     0.208330     0.333330     0.500000    Biso  1.000000 Ni
   Mn256       1.0     0.236110     0.347220     0.833330    Biso  1.000000 Mn
   Na388       1.0     0.208330     0.375000     0.000000    Biso  1.000000 Na
   Na389       1.0     0.236110     0.388890     0.333330    Biso  1.000000 Na
   Na390       1.0     0.222220     0.402780     0.666670    Biso  1.000000 Na
   O775        1.0     0.208330     0.375000     0.239590    Biso  1.000000 O
   O776        1.0     0.236110     0.388890     0.093750    Biso  1.000000 O
   O777        1.0     0.236110     0.388890     0.572920    Biso  1.000000 O
   O778        1.0     0.222220     0.402780     0.427080    Biso  1.000000 O
   O779        1.0     0.222220     0.402780     0.906250    Biso  1.000000 O
   O780        1.0     0.208330     0.375000     0.760410    Biso  1.000000 O
   Mn257       1.0     0.222220     0.402780     0.166670    Biso  1.000000 Mn
   Ni100       1.0     0.208330     0.375000     0.500000    Biso  1.000000 Ni
   Mn258       1.0     0.236110     0.388890     0.833330    Biso  1.000000 Mn
   Na391       1.0     0.208330     0.416670     0.000000    Biso  1.000000 Na
   Na392       1.0     0.236110     0.430560     0.333330    Biso  1.000000 Na
   Na393       1.0     0.222220     0.444440     0.666670    Biso  1.000000 Na
   O781        1.0     0.208330     0.416670     0.239590    Biso  1.000000 O
   O782        1.0     0.236110     0.430560     0.093750    Biso  1.000000 O
   O783        1.0     0.236110     0.430560     0.572920    Biso  1.000000 O
   O784        1.0     0.222220     0.444440     0.427080    Biso  1.000000 O
   O785        1.0     0.222220     0.444440     0.906250    Biso  1.000000 O
   O786        1.0     0.208330     0.416670     0.760410    Biso  1.000000 O
   Ni101       1.0     0.222220     0.444440     0.166670    Biso  1.000000 Ni
   Ni102       1.0     0.208330     0.416670     0.500000    Biso  1.000000 Ni
   Ni103       1.0     0.236110     0.430560     0.833330    Biso  1.000000 Ni
   Na394       1.0     0.208330     0.458330     0.000000    Biso  1.000000 Na
   Na395       1.0     0.236110     0.472220     0.333330    Biso  1.000000 Na
   Na396       1.0     0.222220     0.486110     0.666670    Biso  1.000000 Na
   O787        1.0     0.208330     0.458330     0.239590    Biso  1.000000 O
   O788        1.0     0.236110     0.472220     0.093750    Biso  1.000000 O
   O789        1.0     0.236110     0.472220     0.572920    Biso  1.000000 O
   O790        1.0     0.222220     0.486110     0.427080    Biso  1.000000 O
   O791        1.0     0.222220     0.486110     0.906250    Biso  1.000000 O
   O792        1.0     0.208330     0.458330     0.760410    Biso  1.000000 O
   Ni104       1.0     0.222220     0.486110     0.166670    Biso  1.000000 Ni
   Mn259       1.0     0.208330     0.458330     0.500000    Biso  1.000000 Mn
   Mn260       1.0     0.236110     0.472220     0.833330    Biso  1.000000 Mn
   Na397       1.0     0.208330     0.500000     0.000000    Biso  1.000000 Na
   Na398       1.0     0.236110     0.513890     0.333330    Biso  1.000000 Na
   Na399       1.0     0.222220     0.527780     0.666670    Biso  1.000000 Na
   O793        1.0     0.208330     0.500000     0.239590    Biso  1.000000 O
   O794        1.0     0.236110     0.513890     0.093750    Biso  1.000000 O
   O795        1.0     0.236110     0.513890     0.572920    Biso  1.000000 O
   O796        1.0     0.222220     0.527780     0.427080    Biso  1.000000 O
   O797        1.0     0.222220     0.527780     0.906250    Biso  1.000000 O
   O798        1.0     0.208330     0.500000     0.760410    Biso  1.000000 O
   Mn261       1.0     0.222220     0.527780     0.166670    Biso  1.000000 Mn
   Ni105       1.0     0.208330     0.500000     0.500000    Biso  1.000000 Ni
   Mn262       1.0     0.236110     0.513890     0.833330    Biso  1.000000 Mn
   Na400       1.0     0.208330     0.541670     0.000000    Biso  1.000000 Na
   Na401       1.0     0.236110     0.555560     0.333330    Biso  1.000000 Na
   Na402       1.0     0.222220     0.569440     0.666670    Biso  1.000000 Na
   O799        1.0     0.208330     0.541670     0.239590    Biso  1.000000 O
   O800        1.0     0.236110     0.555560     0.093750    Biso  1.000000 O
   O801        1.0     0.236110     0.555560     0.572920    Biso  1.000000 O
   O802        1.0     0.222220     0.569440     0.427080    Biso  1.000000 O
   O803        1.0     0.222220     0.569440     0.906250    Biso  1.000000 O
   O804        1.0     0.208330     0.541670     0.760410    Biso  1.000000 O
   Mn263       1.0     0.222220     0.569440     0.166670    Biso  1.000000 Mn
   Mn264       1.0     0.208330     0.541670     0.500000    Biso  1.000000 Mn
   Mn265       1.0     0.236110     0.555560     0.833330    Biso  1.000000 Mn
   Na403       1.0     0.208330     0.583330     0.000000    Biso  1.000000 Na
   Na404       1.0     0.236110     0.597220     0.333330    Biso  1.000000 Na
   Na405       1.0     0.222220     0.611110     0.666670    Biso  1.000000 Na
   O805        1.0     0.208330     0.583330     0.239590    Biso  1.000000 O
   O806        1.0     0.236110     0.597220     0.093750    Biso  1.000000 O
   O807        1.0     0.236110     0.597220     0.572920    Biso  1.000000 O
   O808        1.0     0.222220     0.611110     0.427080    Biso  1.000000 O
   O809        1.0     0.222220     0.611110     0.906250    Biso  1.000000 O
   O810        1.0     0.208330     0.583330     0.760410    Biso  1.000000 O
   Ni106       1.0     0.222220     0.611110     0.166670    Biso  1.000000 Ni
   Mn266       1.0     0.208330     0.583330     0.500000    Biso  1.000000 Mn
   Ni107       1.0     0.236110     0.597220     0.833330    Biso  1.000000 Ni
   Na406       1.0     0.208330     0.625000     0.000000    Biso  1.000000 Na
   Na407       1.0     0.236110     0.638890     0.333330    Biso  1.000000 Na
   Na408       1.0     0.222220     0.652780     0.666670    Biso  1.000000 Na
   O811        1.0     0.208330     0.625000     0.239590    Biso  1.000000 O
   O812        1.0     0.236110     0.638890     0.093750    Biso  1.000000 O
   O813        1.0     0.236110     0.638890     0.572920    Biso  1.000000 O
   O814        1.0     0.222220     0.652780     0.427080    Biso  1.000000 O
   O815        1.0     0.222220     0.652780     0.906250    Biso  1.000000 O
   O816        1.0     0.208330     0.625000     0.760410    Biso  1.000000 O
   Mn267       1.0     0.222220     0.652780     0.166670    Biso  1.000000 Mn
   Li33        1.0     0.208330     0.625000     0.500000    Biso  1.000000 Li
   Mn268       1.0     0.236110     0.638890     0.833330    Biso  1.000000 Mn
   Na409       1.0     0.208330     0.666670     0.000000    Biso  1.000000 Na
   Na410       1.0     0.236110     0.680560     0.333330    Biso  1.000000 Na
   Na411       1.0     0.222220     0.694440     0.666670    Biso  1.000000 Na
   O817        1.0     0.208330     0.666670     0.239590    Biso  1.000000 O
   O818        1.0     0.236110     0.680560     0.093750    Biso  1.000000 O
   O819        1.0     0.236110     0.680560     0.572920    Biso  1.000000 O
   O820        1.0     0.222220     0.694440     0.427080    Biso  1.000000 O
   O821        1.0     0.222220     0.694440     0.906250    Biso  1.000000 O
   O822        1.0     0.208330     0.666670     0.760410    Biso  1.000000 O
   Mn269       1.0     0.222220     0.694440     0.166670    Biso  1.000000 Mn
   Mn270       1.0     0.208330     0.666670     0.500000    Biso  1.000000 Mn
   Mn271       1.0     0.236110     0.680560     0.833330    Biso  1.000000 Mn
   Na412       1.0     0.208330     0.708330     0.000000    Biso  1.000000 Na
   Na413       1.0     0.236110     0.722220     0.333330    Biso  1.000000 Na
   Na414       1.0     0.222220     0.736110     0.666670    Biso  1.000000 Na
   O823        1.0     0.208330     0.708330     0.239590    Biso  1.000000 O
   O824        1.0     0.236110     0.722220     0.093750    Biso  1.000000 O
   O825        1.0     0.236110     0.722220     0.572920    Biso  1.000000 O
   O826        1.0     0.222220     0.736110     0.427080    Biso  1.000000 O
   O827        1.0     0.222220     0.736110     0.906250    Biso  1.000000 O
   O828        1.0     0.208330     0.708330     0.760410    Biso  1.000000 O
   Li34        1.0     0.222220     0.736110     0.166670    Biso  1.000000 Li
   Mn272       1.0     0.208330     0.708330     0.500000    Biso  1.000000 Mn
   Li35        1.0     0.236110     0.722220     0.833330    Biso  1.000000 Li
   Na415       1.0     0.208330     0.750000     0.000000    Biso  1.000000 Na
   Na416       1.0     0.236110     0.763890     0.333330    Biso  1.000000 Na
   Na417       1.0     0.222220     0.777780     0.666670    Biso  1.000000 Na
   O829        1.0     0.208330     0.750000     0.239590    Biso  1.000000 O
   O830        1.0     0.236110     0.763890     0.093750    Biso  1.000000 O
   O831        1.0     0.236110     0.763890     0.572920    Biso  1.000000 O
   O832        1.0     0.222220     0.777780     0.427080    Biso  1.000000 O
   O833        1.0     0.222220     0.777780     0.906250    Biso  1.000000 O
   O834        1.0     0.208330     0.750000     0.760410    Biso  1.000000 O
   Mn273       1.0     0.222220     0.777780     0.166670    Biso  1.000000 Mn
   Li36        1.0     0.208330     0.750000     0.500000    Biso  1.000000 Li
   Mn274       1.0     0.236110     0.763890     0.833330    Biso  1.000000 Mn
   Na418       1.0     0.208330     0.791670     0.000000    Biso  1.000000 Na
   Na419       1.0     0.236110     0.805560     0.333330    Biso  1.000000 Na
   Na420       1.0     0.222220     0.819440     0.666670    Biso  1.000000 Na
   O835        1.0     0.208330     0.791670     0.239590    Biso  1.000000 O
   O836        1.0     0.236110     0.805560     0.093750    Biso  1.000000 O
   O837        1.0     0.236110     0.805560     0.572920    Biso  1.000000 O
   O838        1.0     0.222220     0.819440     0.427080    Biso  1.000000 O
   O839        1.0     0.222220     0.819440     0.906250    Biso  1.000000 O
   O840        1.0     0.208330     0.791670     0.760410    Biso  1.000000 O
   Mn275       1.0     0.222220     0.819440     0.166670    Biso  1.000000 Mn
   Mn276       1.0     0.208330     0.791670     0.500000    Biso  1.000000 Mn
   Mn277       1.0     0.236110     0.805560     0.833330    Biso  1.000000 Mn
   Na421       1.0     0.208330     0.833330     0.000000    Biso  1.000000 Na
   Na422       1.0     0.236110     0.847220     0.333330    Biso  1.000000 Na
   Na423       1.0     0.222220     0.861110     0.666670    Biso  1.000000 Na
   O841        1.0     0.208330     0.833330     0.239590    Biso  1.000000 O
   O842        1.0     0.236110     0.847220     0.093750    Biso  1.000000 O
   O843        1.0     0.236110     0.847220     0.572920    Biso  1.000000 O
   O844        1.0     0.222220     0.861110     0.427080    Biso  1.000000 O
   O845        1.0     0.222220     0.861110     0.906250    Biso  1.000000 O
   O846        1.0     0.208330     0.833330     0.760410    Biso  1.000000 O
   Li37        1.0     0.222220     0.861110     0.166670    Biso  1.000000 Li
   Mn278       1.0     0.208330     0.833330     0.500000    Biso  1.000000 Mn
   Mn279       1.0     0.236110     0.847220     0.833330    Biso  1.000000 Mn
   Na424       1.0     0.208330     0.875000     0.000000    Biso  1.000000 Na
   Na425       1.0     0.236110     0.888890     0.333330    Biso  1.000000 Na
   Na426       1.0     0.222220     0.902780     0.666670    Biso  1.000000 Na
   O847        1.0     0.208330     0.875000     0.239590    Biso  1.000000 O
   O848        1.0     0.236110     0.888890     0.093750    Biso  1.000000 O
   O849        1.0     0.236110     0.888890     0.572920    Biso  1.000000 O
   O850        1.0     0.222220     0.902780     0.427080    Biso  1.000000 O
   O851        1.0     0.222220     0.902780     0.906250    Biso  1.000000 O
   O852        1.0     0.208330     0.875000     0.760410    Biso  1.000000 O
   Mn280       1.0     0.222220     0.902780     0.166670    Biso  1.000000 Mn
   Ni108       1.0     0.208330     0.875000     0.500000    Biso  1.000000 Ni
   Mn281       1.0     0.236110     0.888890     0.833330    Biso  1.000000 Mn
   Na427       1.0     0.208330     0.916670     0.000000    Biso  1.000000 Na
   Na428       1.0     0.236110     0.930560     0.333330    Biso  1.000000 Na
   Na429       1.0     0.222220     0.944440     0.666670    Biso  1.000000 Na
   O853        1.0     0.208330     0.916670     0.239590    Biso  1.000000 O
   O854        1.0     0.236110     0.930560     0.093750    Biso  1.000000 O
   O855        1.0     0.236110     0.930560     0.572920    Biso  1.000000 O
   O856        1.0     0.222220     0.944440     0.427080    Biso  1.000000 O
   O857        1.0     0.222220     0.944440     0.906250    Biso  1.000000 O
   O858        1.0     0.208330     0.916670     0.760410    Biso  1.000000 O
   Mn282       1.0     0.222220     0.944440     0.166670    Biso  1.000000 Mn
   Mn283       1.0     0.208330     0.916670     0.500000    Biso  1.000000 Mn
   Li38        1.0     0.236110     0.930560     0.833330    Biso  1.000000 Li
   Na430       1.0     0.208330     0.958330     0.000000    Biso  1.000000 Na
   Na431       1.0     0.236110     0.972220     0.333330    Biso  1.000000 Na
   Na432       1.0     0.222220     0.986110     0.666670    Biso  1.000000 Na
   O859        1.0     0.208330     0.958330     0.239590    Biso  1.000000 O
   O860        1.0     0.236110     0.972220     0.093750    Biso  1.000000 O
   O861        1.0     0.236110     0.972220     0.572920    Biso  1.000000 O
   O862        1.0     0.222220     0.986110     0.427080    Biso  1.000000 O
   O863        1.0     0.222220     0.986110     0.906250    Biso  1.000000 O
   O864        1.0     0.208330     0.958330     0.760410    Biso  1.000000 O
   Ni109       1.0     0.222220     0.986110     0.166670    Biso  1.000000 Ni
   Ni110       1.0     0.208330     0.958330     0.500000    Biso  1.000000 Ni
   Mn284       1.0     0.236110     0.972220     0.833330    Biso  1.000000 Mn
   Na433       1.0     0.250000     0.000000     0.000000    Biso  1.000000 Na
   Na434       1.0     0.277780     0.013890     0.333330    Biso  1.000000 Na
   Na435       1.0     0.263890     0.027780     0.666670    Biso  1.000000 Na
   O865        1.0     0.250000     0.000000     0.239590    Biso  1.000000 O
   O866        1.0     0.277780     0.013890     0.093750    Biso  1.000000 O
   O867        1.0     0.277780     0.013890     0.572920    Biso  1.000000 O
   O868        1.0     0.263890     0.027780     0.427080    Biso  1.000000 O
   O869        1.0     0.263890     0.027780     0.906250    Biso  1.000000 O
   O870        1.0     0.250000     0.000000     0.760410    Biso  1.000000 O
   Mn285       1.0     0.263890     0.027780     0.166670    Biso  1.000000 Mn
   Mn286       1.0     0.250000     0.000000     0.500000    Biso  1.000000 Mn
   Li39        1.0     0.277780     0.013890     0.833330    Biso  1.000000 Li
   Na436       1.0     0.250000     0.041670     0.000000    Biso  1.000000 Na
   Na437       1.0     0.277780     0.055560     0.333330    Biso  1.000000 Na
   Na438       1.0     0.263890     0.069440     0.666670    Biso  1.000000 Na
   O871        1.0     0.250000     0.041670     0.239590    Biso  1.000000 O
   O872        1.0     0.277780     0.055560     0.093750    Biso  1.000000 O
   O873        1.0     0.277780     0.055560     0.572920    Biso  1.000000 O
   O874        1.0     0.263890     0.069440     0.427080    Biso  1.000000 O
   O875        1.0     0.263890     0.069440     0.906250    Biso  1.000000 O
   O876        1.0     0.250000     0.041670     0.760410    Biso  1.000000 O
   Li40        1.0     0.263890     0.069440     0.166670    Biso  1.000000 Li
   Li41        1.0     0.250000     0.041670     0.500000    Biso  1.000000 Li
   Mn287       1.0     0.277780     0.055560     0.833330    Biso  1.000000 Mn
   Na439       1.0     0.250000     0.083330     0.000000    Biso  1.000000 Na
   Na440       1.0     0.277780     0.097220     0.333330    Biso  1.000000 Na
   Na441       1.0     0.263890     0.111110     0.666670    Biso  1.000000 Na
   O877        1.0     0.250000     0.083330     0.239590    Biso  1.000000 O
   O878        1.0     0.277780     0.097220     0.093750    Biso  1.000000 O
   O879        1.0     0.277780     0.097220     0.572920    Biso  1.000000 O
   O880        1.0     0.263890     0.111110     0.427080    Biso  1.000000 O
   O881        1.0     0.263890     0.111110     0.906250    Biso  1.000000 O
   O882        1.0     0.250000     0.083330     0.760410    Biso  1.000000 O
   Mn288       1.0     0.263890     0.111110     0.166670    Biso  1.000000 Mn
   Mn289       1.0     0.250000     0.083330     0.500000    Biso  1.000000 Mn
   Mn290       1.0     0.277780     0.097220     0.833330    Biso  1.000000 Mn
   Na442       1.0     0.250000     0.125000     0.000000    Biso  1.000000 Na
   Na443       1.0     0.277780     0.138890     0.333330    Biso  1.000000 Na
   Na444       1.0     0.263890     0.152780     0.666670    Biso  1.000000 Na
   O883        1.0     0.250000     0.125000     0.239590    Biso  1.000000 O
   O884        1.0     0.277780     0.138890     0.093750    Biso  1.000000 O
   O885        1.0     0.277780     0.138890     0.572920    Biso  1.000000 O
   O886        1.0     0.263890     0.152780     0.427080    Biso  1.000000 O
   O887        1.0     0.263890     0.152780     0.906250    Biso  1.000000 O
   O888        1.0     0.250000     0.125000     0.760410    Biso  1.000000 O
   Mn291       1.0     0.263890     0.152780     0.166670    Biso  1.000000 Mn
   Mn292       1.0     0.250000     0.125000     0.500000    Biso  1.000000 Mn
   Li42        1.0     0.277780     0.138890     0.833330    Biso  1.000000 Li
   Na445       1.0     0.250000     0.166670     0.000000    Biso  1.000000 Na
   Na446       1.0     0.277780     0.180560     0.333330    Biso  1.000000 Na
   Na447       1.0     0.263890     0.194440     0.666670    Biso  1.000000 Na
   O889        1.0     0.250000     0.166670     0.239590    Biso  1.000000 O
   O890        1.0     0.277780     0.180560     0.093750    Biso  1.000000 O
   O891        1.0     0.277780     0.180560     0.572920    Biso  1.000000 O
   O892        1.0     0.263890     0.194440     0.427080    Biso  1.000000 O
   O893        1.0     0.263890     0.194440     0.906250    Biso  1.000000 O
   O894        1.0     0.250000     0.166670     0.760410    Biso  1.000000 O
   Li43        1.0     0.263890     0.194440     0.166670    Biso  1.000000 Li
   Li44        1.0     0.250000     0.166670     0.500000    Biso  1.000000 Li
   Mn293       1.0     0.277780     0.180560     0.833330    Biso  1.000000 Mn
   Na448       1.0     0.250000     0.208330     0.000000    Biso  1.000000 Na
   Na449       1.0     0.277780     0.222220     0.333330    Biso  1.000000 Na
   Na450       1.0     0.263890     0.236110     0.666670    Biso  1.000000 Na
   O895        1.0     0.250000     0.208330     0.239590    Biso  1.000000 O
   O896        1.0     0.277780     0.222220     0.093750    Biso  1.000000 O
   O897        1.0     0.277780     0.222220     0.572920    Biso  1.000000 O
   O898        1.0     0.263890     0.236110     0.427080    Biso  1.000000 O
   O899        1.0     0.263890     0.236110     0.906250    Biso  1.000000 O
   O900        1.0     0.250000     0.208330     0.760410    Biso  1.000000 O
   Mn294       1.0     0.263890     0.236110     0.166670    Biso  1.000000 Mn
   Mn295       1.0     0.250000     0.208330     0.500000    Biso  1.000000 Mn
   Mn296       1.0     0.277780     0.222220     0.833330    Biso  1.000000 Mn
   Na451       1.0     0.250000     0.250000     0.000000    Biso  1.000000 Na
   Na452       1.0     0.277780     0.263890     0.333330    Biso  1.000000 Na
   Na453       1.0     0.263890     0.277780     0.666670    Biso  1.000000 Na
   O901        1.0     0.250000     0.250000     0.239590    Biso  1.000000 O
   O902        1.0     0.277780     0.263890     0.093750    Biso  1.000000 O
   O903        1.0     0.277780     0.263890     0.572920    Biso  1.000000 O
   O904        1.0     0.263890     0.277780     0.427080    Biso  1.000000 O
   O905        1.0     0.263890     0.277780     0.906250    Biso  1.000000 O
   O906        1.0     0.250000     0.250000     0.760410    Biso  1.000000 O
   Mn297       1.0     0.263890     0.277780     0.166670    Biso  1.000000 Mn
   Mn298       1.0     0.250000     0.250000     0.500000    Biso  1.000000 Mn
   Mn299       1.0     0.277780     0.263890     0.833330    Biso  1.000000 Mn
   Na454       1.0     0.250000     0.291670     0.000000    Biso  1.000000 Na
   Na455       1.0     0.277780     0.305560     0.333330    Biso  1.000000 Na
   Na456       1.0     0.263890     0.319440     0.666670    Biso  1.000000 Na
   O907        1.0     0.250000     0.291670     0.239590    Biso  1.000000 O
   O908        1.0     0.277780     0.305560     0.093750    Biso  1.000000 O
   O909        1.0     0.277780     0.305560     0.572920    Biso  1.000000 O
   O910        1.0     0.263890     0.319440     0.427080    Biso  1.000000 O
   O911        1.0     0.263890     0.319440     0.906250    Biso  1.000000 O
   O912        1.0     0.250000     0.291670     0.760410    Biso  1.000000 O
   Ni111       1.0     0.263890     0.319440     0.166670    Biso  1.000000 Ni
   Ni112       1.0     0.250000     0.291670     0.500000    Biso  1.000000 Ni
   Mn300       1.0     0.277780     0.305560     0.833330    Biso  1.000000 Mn
   Na457       1.0     0.250000     0.333330     0.000000    Biso  1.000000 Na
   Na458       1.0     0.277780     0.347220     0.333330    Biso  1.000000 Na
   Na459       1.0     0.263890     0.361110     0.666670    Biso  1.000000 Na
   O913        1.0     0.250000     0.333330     0.239590    Biso  1.000000 O
   O914        1.0     0.277780     0.347220     0.093750    Biso  1.000000 O
   O915        1.0     0.277780     0.347220     0.572920    Biso  1.000000 O
   O916        1.0     0.263890     0.361110     0.427080    Biso  1.000000 O
   O917        1.0     0.263890     0.361110     0.906250    Biso  1.000000 O
   O918        1.0     0.250000     0.333330     0.760410    Biso  1.000000 O
   Mn301       1.0     0.263890     0.361110     0.166670    Biso  1.000000 Mn
   Mn302       1.0     0.250000     0.333330     0.500000    Biso  1.000000 Mn
   Ni113       1.0     0.277780     0.347220     0.833330    Biso  1.000000 Ni
   Na460       1.0     0.250000     0.375000     0.000000    Biso  1.000000 Na
   Na461       1.0     0.277780     0.388890     0.333330    Biso  1.000000 Na
   Na462       1.0     0.263890     0.402780     0.666670    Biso  1.000000 Na
   O919        1.0     0.250000     0.375000     0.239590    Biso  1.000000 O
   O920        1.0     0.277780     0.388890     0.093750    Biso  1.000000 O
   O921        1.0     0.277780     0.388890     0.572920    Biso  1.000000 O
   O922        1.0     0.263890     0.402780     0.427080    Biso  1.000000 O
   O923        1.0     0.263890     0.402780     0.906250    Biso  1.000000 O
   O924        1.0     0.250000     0.375000     0.760410    Biso  1.000000 O
   Ni114       1.0     0.263890     0.402780     0.166670    Biso  1.000000 Ni
   Mn303       1.0     0.250000     0.375000     0.500000    Biso  1.000000 Mn
   Ni115       1.0     0.277780     0.388890     0.833330    Biso  1.000000 Ni
   Na463       1.0     0.250000     0.416670     0.000000    Biso  1.000000 Na
   Na464       1.0     0.277780     0.430560     0.333330    Biso  1.000000 Na
   Na465       1.0     0.263890     0.444440     0.666670    Biso  1.000000 Na
   O925        1.0     0.250000     0.416670     0.239590    Biso  1.000000 O
   O926        1.0     0.277780     0.430560     0.093750    Biso  1.000000 O
   O927        1.0     0.277780     0.430560     0.572920    Biso  1.000000 O
   O928        1.0     0.263890     0.444440     0.427080    Biso  1.000000 O
   O929        1.0     0.263890     0.444440     0.906250    Biso  1.000000 O
   O930        1.0     0.250000     0.416670     0.760410    Biso  1.000000 O
   Mn304       1.0     0.263890     0.444440     0.166670    Biso  1.000000 Mn
   Mn305       1.0     0.250000     0.416670     0.500000    Biso  1.000000 Mn
   Mn306       1.0     0.277780     0.430560     0.833330    Biso  1.000000 Mn
   Na466       1.0     0.250000     0.458330     0.000000    Biso  1.000000 Na
   Na467       1.0     0.277780     0.472220     0.333330    Biso  1.000000 Na
   Na468       1.0     0.263890     0.486110     0.666670    Biso  1.000000 Na
   O931        1.0     0.250000     0.458330     0.239590    Biso  1.000000 O
   O932        1.0     0.277780     0.472220     0.093750    Biso  1.000000 O
   O933        1.0     0.277780     0.472220     0.572920    Biso  1.000000 O
   O934        1.0     0.263890     0.486110     0.427080    Biso  1.000000 O
   O935        1.0     0.263890     0.486110     0.906250    Biso  1.000000 O
   O936        1.0     0.250000     0.458330     0.760410    Biso  1.000000 O
   Mn307       1.0     0.263890     0.486110     0.166670    Biso  1.000000 Mn
   Mn308       1.0     0.250000     0.458330     0.500000    Biso  1.000000 Mn
   Mn309       1.0     0.277780     0.472220     0.833330    Biso  1.000000 Mn
   Na469       1.0     0.250000     0.500000     0.000000    Biso  1.000000 Na
   Na470       1.0     0.277780     0.513890     0.333330    Biso  1.000000 Na
   Na471       1.0     0.263890     0.527780     0.666670    Biso  1.000000 Na
   O937        1.0     0.250000     0.500000     0.239590    Biso  1.000000 O
   O938        1.0     0.277780     0.513890     0.093750    Biso  1.000000 O
   O939        1.0     0.277780     0.513890     0.572920    Biso  1.000000 O
   O940        1.0     0.263890     0.527780     0.427080    Biso  1.000000 O
   O941        1.0     0.263890     0.527780     0.906250    Biso  1.000000 O
   O942        1.0     0.250000     0.500000     0.760410    Biso  1.000000 O
   Mn310       1.0     0.263890     0.527780     0.166670    Biso  1.000000 Mn
   Mn311       1.0     0.250000     0.500000     0.500000    Biso  1.000000 Mn
   Ni116       1.0     0.277780     0.513890     0.833330    Biso  1.000000 Ni
   Na472       1.0     0.250000     0.541670     0.000000    Biso  1.000000 Na
   Na473       1.0     0.277780     0.555560     0.333330    Biso  1.000000 Na
   Na474       1.0     0.263890     0.569440     0.666670    Biso  1.000000 Na
   O943        1.0     0.250000     0.541670     0.239590    Biso  1.000000 O
   O944        1.0     0.277780     0.555560     0.093750    Biso  1.000000 O
   O945        1.0     0.277780     0.555560     0.572920    Biso  1.000000 O
   O946        1.0     0.263890     0.569440     0.427080    Biso  1.000000 O
   O947        1.0     0.263890     0.569440     0.906250    Biso  1.000000 O
   O948        1.0     0.250000     0.541670     0.760410    Biso  1.000000 O
   Ni117       1.0     0.263890     0.569440     0.166670    Biso  1.000000 Ni
   Mn312       1.0     0.250000     0.541670     0.500000    Biso  1.000000 Mn
   Mn313       1.0     0.277780     0.555560     0.833330    Biso  1.000000 Mn
   Na475       1.0     0.250000     0.583330     0.000000    Biso  1.000000 Na
   Na476       1.0     0.277780     0.597220     0.333330    Biso  1.000000 Na
   Na477       1.0     0.263890     0.611110     0.666670    Biso  1.000000 Na
   O949        1.0     0.250000     0.583330     0.239590    Biso  1.000000 O
   O950        1.0     0.277780     0.597220     0.093750    Biso  1.000000 O
   O951        1.0     0.277780     0.597220     0.572920    Biso  1.000000 O
   O952        1.0     0.263890     0.611110     0.427080    Biso  1.000000 O
   O953        1.0     0.263890     0.611110     0.906250    Biso  1.000000 O
   O954        1.0     0.250000     0.583330     0.760410    Biso  1.000000 O
   Mn314       1.0     0.263890     0.611110     0.166670    Biso  1.000000 Mn
   Ni118       1.0     0.250000     0.583330     0.500000    Biso  1.000000 Ni
   Mn315       1.0     0.277780     0.597220     0.833330    Biso  1.000000 Mn
   Na478       1.0     0.250000     0.625000     0.000000    Biso  1.000000 Na
   Na479       1.0     0.277780     0.638890     0.333330    Biso  1.000000 Na
   Na480       1.0     0.263890     0.652780     0.666670    Biso  1.000000 Na
   O955        1.0     0.250000     0.625000     0.239590    Biso  1.000000 O
   O956        1.0     0.277780     0.638890     0.093750    Biso  1.000000 O
   O957        1.0     0.277780     0.638890     0.572920    Biso  1.000000 O
   O958        1.0     0.263890     0.652780     0.427080    Biso  1.000000 O
   O959        1.0     0.263890     0.652780     0.906250    Biso  1.000000 O
   O960        1.0     0.250000     0.625000     0.760410    Biso  1.000000 O
   Mn316       1.0     0.263890     0.652780     0.166670    Biso  1.000000 Mn
   Mn317       1.0     0.250000     0.625000     0.500000    Biso  1.000000 Mn
   Mn318       1.0     0.277780     0.638890     0.833330    Biso  1.000000 Mn
   Na481       1.0     0.250000     0.666670     0.000000    Biso  1.000000 Na
   Na482       1.0     0.277780     0.680560     0.333330    Biso  1.000000 Na
   Na483       1.0     0.263890     0.694440     0.666670    Biso  1.000000 Na
   O961        1.0     0.250000     0.666670     0.239590    Biso  1.000000 O
   O962        1.0     0.277780     0.680560     0.093750    Biso  1.000000 O
   O963        1.0     0.277780     0.680560     0.572920    Biso  1.000000 O
   O964        1.0     0.263890     0.694440     0.427080    Biso  1.000000 O
   O965        1.0     0.263890     0.694440     0.906250    Biso  1.000000 O
   O966        1.0     0.250000     0.666670     0.760410    Biso  1.000000 O
   Li45        1.0     0.263890     0.694440     0.166670    Biso  1.000000 Li
   Mn319       1.0     0.250000     0.666670     0.500000    Biso  1.000000 Mn
   Li46        1.0     0.277780     0.680560     0.833330    Biso  1.000000 Li
   Na484       1.0     0.250000     0.708330     0.000000    Biso  1.000000 Na
   Na485       1.0     0.277780     0.722220     0.333330    Biso  1.000000 Na
   Na486       1.0     0.263890     0.736110     0.666670    Biso  1.000000 Na
   O967        1.0     0.250000     0.708330     0.239590    Biso  1.000000 O
   O968        1.0     0.277780     0.722220     0.093750    Biso  1.000000 O
   O969        1.0     0.277780     0.722220     0.572920    Biso  1.000000 O
   O970        1.0     0.263890     0.736110     0.427080    Biso  1.000000 O
   O971        1.0     0.263890     0.736110     0.906250    Biso  1.000000 O
   O972        1.0     0.250000     0.708330     0.760410    Biso  1.000000 O
   Mn320       1.0     0.263890     0.736110     0.166670    Biso  1.000000 Mn
   Li47        1.0     0.250000     0.708330     0.500000    Biso  1.000000 Li
   Mn321       1.0     0.277780     0.722220     0.833330    Biso  1.000000 Mn
   Na487       1.0     0.250000     0.750000     0.000000    Biso  1.000000 Na
   Na488       1.0     0.277780     0.763890     0.333330    Biso  1.000000 Na
   Na489       1.0     0.263890     0.777780     0.666670    Biso  1.000000 Na
   O973        1.0     0.250000     0.750000     0.239590    Biso  1.000000 O
   O974        1.0     0.277780     0.763890     0.093750    Biso  1.000000 O
   O975        1.0     0.277780     0.763890     0.572920    Biso  1.000000 O
   O976        1.0     0.263890     0.777780     0.427080    Biso  1.000000 O
   O977        1.0     0.263890     0.777780     0.906250    Biso  1.000000 O
   O978        1.0     0.250000     0.750000     0.760410    Biso  1.000000 O
   Mn322       1.0     0.263890     0.777780     0.166670    Biso  1.000000 Mn
   Mn323       1.0     0.250000     0.750000     0.500000    Biso  1.000000 Mn
   Mn324       1.0     0.277780     0.763890     0.833330    Biso  1.000000 Mn
   Na490       1.0     0.250000     0.791670     0.000000    Biso  1.000000 Na
   Na491       1.0     0.277780     0.805560     0.333330    Biso  1.000000 Na
   Na492       1.0     0.263890     0.819440     0.666670    Biso  1.000000 Na
   O979        1.0     0.250000     0.791670     0.239590    Biso  1.000000 O
   O980        1.0     0.277780     0.805560     0.093750    Biso  1.000000 O
   O981        1.0     0.277780     0.805560     0.572920    Biso  1.000000 O
   O982        1.0     0.263890     0.819440     0.427080    Biso  1.000000 O
   O983        1.0     0.263890     0.819440     0.906250    Biso  1.000000 O
   O984        1.0     0.250000     0.791670     0.760410    Biso  1.000000 O
   Li48        1.0     0.263890     0.819440     0.166670    Biso  1.000000 Li
   Mn325       1.0     0.250000     0.791670     0.500000    Biso  1.000000 Mn
   Li49        1.0     0.277780     0.805560     0.833330    Biso  1.000000 Li
   Na493       1.0     0.250000     0.833330     0.000000    Biso  1.000000 Na
   Na494       1.0     0.277780     0.847220     0.333330    Biso  1.000000 Na
   Na495       1.0     0.263890     0.861110     0.666670    Biso  1.000000 Na
   O985        1.0     0.250000     0.833330     0.239590    Biso  1.000000 O
   O986        1.0     0.277780     0.847220     0.093750    Biso  1.000000 O
   O987        1.0     0.277780     0.847220     0.572920    Biso  1.000000 O
   O988        1.0     0.263890     0.861110     0.427080    Biso  1.000000 O
   O989        1.0     0.263890     0.861110     0.906250    Biso  1.000000 O
   O990        1.0     0.250000     0.833330     0.760410    Biso  1.000000 O
   Mn326       1.0     0.263890     0.861110     0.166670    Biso  1.000000 Mn
   Ni119       1.0     0.250000     0.833330     0.500000    Biso  1.000000 Ni
   Mn327       1.0     0.277780     0.847220     0.833330    Biso  1.000000 Mn
   Na496       1.0     0.250000     0.875000     0.000000    Biso  1.000000 Na
   Na497       1.0     0.277780     0.888890     0.333330    Biso  1.000000 Na
   Na498       1.0     0.263890     0.902780     0.666670    Biso  1.000000 Na
   O991        1.0     0.250000     0.875000     0.239590    Biso  1.000000 O
   O992        1.0     0.277780     0.888890     0.093750    Biso  1.000000 O
   O993        1.0     0.277780     0.888890     0.572920    Biso  1.000000 O
   O994        1.0     0.263890     0.902780     0.427080    Biso  1.000000 O
   O995        1.0     0.263890     0.902780     0.906250    Biso  1.000000 O
   O996        1.0     0.250000     0.875000     0.760410    Biso  1.000000 O
   Mn328       1.0     0.263890     0.902780     0.166670    Biso  1.000000 Mn
   Mn329       1.0     0.250000     0.875000     0.500000    Biso  1.000000 Mn
   Li50        1.0     0.277780     0.888890     0.833330    Biso  1.000000 Li
   Na499       1.0     0.250000     0.916670     0.000000    Biso  1.000000 Na
   Na500       1.0     0.277780     0.930560     0.333330    Biso  1.000000 Na
   Na501       1.0     0.263890     0.944440     0.666670    Biso  1.000000 Na
   O997        1.0     0.250000     0.916670     0.239590    Biso  1.000000 O
   O998        1.0     0.277780     0.930560     0.093750    Biso  1.000000 O
   O999        1.0     0.277780     0.930560     0.572920    Biso  1.000000 O
   O1000       1.0     0.263890     0.944440     0.427080    Biso  1.000000 O
   O1001       1.0     0.263890     0.944440     0.906250    Biso  1.000000 O
   O1002       1.0     0.250000     0.916670     0.760410    Biso  1.000000 O
   Li51        1.0     0.263890     0.944440     0.166670    Biso  1.000000 Li
   Li52        1.0     0.250000     0.916670     0.500000    Biso  1.000000 Li
   Mn330       1.0     0.277780     0.930560     0.833330    Biso  1.000000 Mn
   Na502       1.0     0.250000     0.958330     0.000000    Biso  1.000000 Na
   Na503       1.0     0.277780     0.972220     0.333330    Biso  1.000000 Na
   Na504       1.0     0.263890     0.986110     0.666670    Biso  1.000000 Na
   O1003       1.0     0.250000     0.958330     0.239590    Biso  1.000000 O
   O1004       1.0     0.277780     0.972220     0.093750    Biso  1.000000 O
   O1005       1.0     0.277780     0.972220     0.572920    Biso  1.000000 O
   O1006       1.0     0.263890     0.986110     0.427080    Biso  1.000000 O
   O1007       1.0     0.263890     0.986110     0.906250    Biso  1.000000 O
   O1008       1.0     0.250000     0.958330     0.760410    Biso  1.000000 O
   Mn331       1.0     0.263890     0.986110     0.166670    Biso  1.000000 Mn
   Mn332       1.0     0.250000     0.958330     0.500000    Biso  1.000000 Mn
   Mn333       1.0     0.277780     0.972220     0.833330    Biso  1.000000 Mn
   Na505       1.0     0.291670     0.000000     0.000000    Biso  1.000000 Na
   Na506       1.0     0.319440     0.013890     0.333330    Biso  1.000000 Na
   Na507       1.0     0.305560     0.027780     0.666670    Biso  1.000000 Na
   O1009       1.0     0.291670     0.000000     0.239590    Biso  1.000000 O
   O1010       1.0     0.319440     0.013890     0.093750    Biso  1.000000 O
   O1011       1.0     0.319440     0.013890     0.572920    Biso  1.000000 O
   O1012       1.0     0.305560     0.027780     0.427080    Biso  1.000000 O
   O1013       1.0     0.305560     0.027780     0.906250    Biso  1.000000 O
   O1014       1.0     0.291670     0.000000     0.760410    Biso  1.000000 O
   Li53        1.0     0.305560     0.027780     0.166670    Biso  1.000000 Li
   Li54        1.0     0.291670     0.000000     0.500000    Biso  1.000000 Li
   Mn334       1.0     0.319440     0.013890     0.833330    Biso  1.000000 Mn
   Na508       1.0     0.291670     0.041670     0.000000    Biso  1.000000 Na
   Na509       1.0     0.319440     0.055560     0.333330    Biso  1.000000 Na
   Na510       1.0     0.305560     0.069440     0.666670    Biso  1.000000 Na
   O1015       1.0     0.291670     0.041670     0.239590    Biso  1.000000 O
   O1016       1.0     0.319440     0.055560     0.093750    Biso  1.000000 O
   O1017       1.0     0.319440     0.055560     0.572920    Biso  1.000000 O
   O1018       1.0     0.305560     0.069440     0.427080    Biso  1.000000 O
   O1019       1.0     0.305560     0.069440     0.906250    Biso  1.000000 O
   O1020       1.0     0.291670     0.041670     0.760410    Biso  1.000000 O
   Mn335       1.0     0.305560     0.069440     0.166670    Biso  1.000000 Mn
   Mn336       1.0     0.291670     0.041670     0.500000    Biso  1.000000 Mn
   Mn337       1.0     0.319440     0.055560     0.833330    Biso  1.000000 Mn
   Na511       1.0     0.291670     0.083330     0.000000    Biso  1.000000 Na
   Na512       1.0     0.319440     0.097220     0.333330    Biso  1.000000 Na
   Na513       1.0     0.305560     0.111110     0.666670    Biso  1.000000 Na
   O1021       1.0     0.291670     0.083330     0.239590    Biso  1.000000 O
   O1022       1.0     0.319440     0.097220     0.093750    Biso  1.000000 O
   O1023       1.0     0.319440     0.097220     0.572920    Biso  1.000000 O
   O1024       1.0     0.305560     0.111110     0.427080    Biso  1.000000 O
   O1025       1.0     0.305560     0.111110     0.906250    Biso  1.000000 O
   O1026       1.0     0.291670     0.083330     0.760410    Biso  1.000000 O
   Mn338       1.0     0.305560     0.111110     0.166670    Biso  1.000000 Mn
   Mn339       1.0     0.291670     0.083330     0.500000    Biso  1.000000 Mn
   Li55        1.0     0.319440     0.097220     0.833330    Biso  1.000000 Li
   Na514       1.0     0.291670     0.125000     0.000000    Biso  1.000000 Na
   Na515       1.0     0.319440     0.138890     0.333330    Biso  1.000000 Na
   Na516       1.0     0.305560     0.152780     0.666670    Biso  1.000000 Na
   O1027       1.0     0.291670     0.125000     0.239590    Biso  1.000000 O
   O1028       1.0     0.319440     0.138890     0.093750    Biso  1.000000 O
   O1029       1.0     0.319440     0.138890     0.572920    Biso  1.000000 O
   O1030       1.0     0.305560     0.152780     0.427080    Biso  1.000000 O
   O1031       1.0     0.305560     0.152780     0.906250    Biso  1.000000 O
   O1032       1.0     0.291670     0.125000     0.760410    Biso  1.000000 O
   Li56        1.0     0.305560     0.152780     0.166670    Biso  1.000000 Li
   Li57        1.0     0.291670     0.125000     0.500000    Biso  1.000000 Li
   Mn340       1.0     0.319440     0.138890     0.833330    Biso  1.000000 Mn
   Na517       1.0     0.291670     0.166670     0.000000    Biso  1.000000 Na
   Na518       1.0     0.319440     0.180560     0.333330    Biso  1.000000 Na
   Na519       1.0     0.305560     0.194440     0.666670    Biso  1.000000 Na
   O1033       1.0     0.291670     0.166670     0.239590    Biso  1.000000 O
   O1034       1.0     0.319440     0.180560     0.093750    Biso  1.000000 O
   O1035       1.0     0.319440     0.180560     0.572920    Biso  1.000000 O
   O1036       1.0     0.305560     0.194440     0.427080    Biso  1.000000 O
   O1037       1.0     0.305560     0.194440     0.906250    Biso  1.000000 O
   O1038       1.0     0.291670     0.166670     0.760410    Biso  1.000000 O
   Mn341       1.0     0.305560     0.194440     0.166670    Biso  1.000000 Mn
   Mn342       1.0     0.291670     0.166670     0.500000    Biso  1.000000 Mn
   Mn343       1.0     0.319440     0.180560     0.833330    Biso  1.000000 Mn
   Na520       1.0     0.291670     0.208330     0.000000    Biso  1.000000 Na
   Na521       1.0     0.319440     0.222220     0.333330    Biso  1.000000 Na
   Na522       1.0     0.305560     0.236110     0.666670    Biso  1.000000 Na
   O1039       1.0     0.291670     0.208330     0.239590    Biso  1.000000 O
   O1040       1.0     0.319440     0.222220     0.093750    Biso  1.000000 O
   O1041       1.0     0.319440     0.222220     0.572920    Biso  1.000000 O
   O1042       1.0     0.305560     0.236110     0.427080    Biso  1.000000 O
   O1043       1.0     0.305560     0.236110     0.906250    Biso  1.000000 O
   O1044       1.0     0.291670     0.208330     0.760410    Biso  1.000000 O
   Mn344       1.0     0.305560     0.236110     0.166670    Biso  1.000000 Mn
   Mn345       1.0     0.291670     0.208330     0.500000    Biso  1.000000 Mn
   Ni120       1.0     0.319440     0.222220     0.833330    Biso  1.000000 Ni
   Na523       1.0     0.291670     0.250000     0.000000    Biso  1.000000 Na
   Na524       1.0     0.319440     0.263890     0.333330    Biso  1.000000 Na
   Na525       1.0     0.305560     0.277780     0.666670    Biso  1.000000 Na
   O1045       1.0     0.291670     0.250000     0.239590    Biso  1.000000 O
   O1046       1.0     0.319440     0.263890     0.093750    Biso  1.000000 O
   O1047       1.0     0.319440     0.263890     0.572920    Biso  1.000000 O
   O1048       1.0     0.305560     0.277780     0.427080    Biso  1.000000 O
   O1049       1.0     0.305560     0.277780     0.906250    Biso  1.000000 O
   O1050       1.0     0.291670     0.250000     0.760410    Biso  1.000000 O
   Ni121       1.0     0.305560     0.277780     0.166670    Biso  1.000000 Ni
   Ni122       1.0     0.291670     0.250000     0.500000    Biso  1.000000 Ni
   Ni123       1.0     0.319440     0.263890     0.833330    Biso  1.000000 Ni
   Na526       1.0     0.291670     0.291670     0.000000    Biso  1.000000 Na
   Na527       1.0     0.319440     0.305560     0.333330    Biso  1.000000 Na
   Na528       1.0     0.305560     0.319440     0.666670    Biso  1.000000 Na
   O1051       1.0     0.291670     0.291670     0.239590    Biso  1.000000 O
   O1052       1.0     0.319440     0.305560     0.093750    Biso  1.000000 O
   O1053       1.0     0.319440     0.305560     0.572920    Biso  1.000000 O
   O1054       1.0     0.305560     0.319440     0.427080    Biso  1.000000 O
   O1055       1.0     0.305560     0.319440     0.906250    Biso  1.000000 O
   O1056       1.0     0.291670     0.291670     0.760410    Biso  1.000000 O
   Mn346       1.0     0.305560     0.319440     0.166670    Biso  1.000000 Mn
   Mn347       1.0     0.291670     0.291670     0.500000    Biso  1.000000 Mn
   Ni124       1.0     0.319440     0.305560     0.833330    Biso  1.000000 Ni
   Na529       1.0     0.291670     0.333330     0.000000    Biso  1.000000 Na
   Na530       1.0     0.319440     0.347220     0.333330    Biso  1.000000 Na
   Na531       1.0     0.305560     0.361110     0.666670    Biso  1.000000 Na
   O1057       1.0     0.291670     0.333330     0.239590    Biso  1.000000 O
   O1058       1.0     0.319440     0.347220     0.093750    Biso  1.000000 O
   O1059       1.0     0.319440     0.347220     0.572920    Biso  1.000000 O
   O1060       1.0     0.305560     0.361110     0.427080    Biso  1.000000 O
   O1061       1.0     0.305560     0.361110     0.906250    Biso  1.000000 O
   O1062       1.0     0.291670     0.333330     0.760410    Biso  1.000000 O
   Mn348       1.0     0.305560     0.361110     0.166670    Biso  1.000000 Mn
   Mn349       1.0     0.291670     0.333330     0.500000    Biso  1.000000 Mn
   Mn350       1.0     0.319440     0.347220     0.833330    Biso  1.000000 Mn
   Na532       1.0     0.291670     0.375000     0.000000    Biso  1.000000 Na
   Na533       1.0     0.319440     0.388890     0.333330    Biso  1.000000 Na
   Na534       1.0     0.305560     0.402780     0.666670    Biso  1.000000 Na
   O1063       1.0     0.291670     0.375000     0.239590    Biso  1.000000 O
   O1064       1.0     0.319440     0.388890     0.093750    Biso  1.000000 O
   O1065       1.0     0.319440     0.388890     0.572920    Biso  1.000000 O
   O1066       1.0     0.305560     0.402780     0.427080    Biso  1.000000 O
   O1067       1.0     0.305560     0.402780     0.906250    Biso  1.000000 O
   O1068       1.0     0.291670     0.375000     0.760410    Biso  1.000000 O
   Ni125       1.0     0.305560     0.402780     0.166670    Biso  1.000000 Ni
   Ni126       1.0     0.291670     0.375000     0.500000    Biso  1.000000 Ni
   Ni127       1.0     0.319440     0.388890     0.833330    Biso  1.000000 Ni
   Na535       1.0     0.291670     0.416670     0.000000    Biso  1.000000 Na
   Na536       1.0     0.319440     0.430560     0.333330    Biso  1.000000 Na
   Na537       1.0     0.305560     0.444440     0.666670    Biso  1.000000 Na
   O1069       1.0     0.291670     0.416670     0.239590    Biso  1.000000 O
   O1070       1.0     0.319440     0.430560     0.093750    Biso  1.000000 O
   O1071       1.0     0.319440     0.430560     0.572920    Biso  1.000000 O
   O1072       1.0     0.305560     0.444440     0.427080    Biso  1.000000 O
   O1073       1.0     0.305560     0.444440     0.906250    Biso  1.000000 O
   O1074       1.0     0.291670     0.416670     0.760410    Biso  1.000000 O
   Mn351       1.0     0.305560     0.444440     0.166670    Biso  1.000000 Mn
   Mn352       1.0     0.291670     0.416670     0.500000    Biso  1.000000 Mn
   Mn353       1.0     0.319440     0.430560     0.833330    Biso  1.000000 Mn
   Na538       1.0     0.291670     0.458330     0.000000    Biso  1.000000 Na
   Na539       1.0     0.319440     0.472220     0.333330    Biso  1.000000 Na
   Na540       1.0     0.305560     0.486110     0.666670    Biso  1.000000 Na
   O1075       1.0     0.291670     0.458330     0.239590    Biso  1.000000 O
   O1076       1.0     0.319440     0.472220     0.093750    Biso  1.000000 O
   O1077       1.0     0.319440     0.472220     0.572920    Biso  1.000000 O
   O1078       1.0     0.305560     0.486110     0.427080    Biso  1.000000 O
   O1079       1.0     0.305560     0.486110     0.906250    Biso  1.000000 O
   O1080       1.0     0.291670     0.458330     0.760410    Biso  1.000000 O
   Mn354       1.0     0.305560     0.486110     0.166670    Biso  1.000000 Mn
   Ni128       1.0     0.291670     0.458330     0.500000    Biso  1.000000 Ni
   Ni129       1.0     0.319440     0.472220     0.833330    Biso  1.000000 Ni
   Na541       1.0     0.291670     0.500000     0.000000    Biso  1.000000 Na
   Na542       1.0     0.319440     0.513890     0.333330    Biso  1.000000 Na
   Na543       1.0     0.305560     0.527780     0.666670    Biso  1.000000 Na
   O1081       1.0     0.291670     0.500000     0.239590    Biso  1.000000 O
   O1082       1.0     0.319440     0.513890     0.093750    Biso  1.000000 O
   O1083       1.0     0.319440     0.513890     0.572920    Biso  1.000000 O
   O1084       1.0     0.305560     0.527780     0.427080    Biso  1.000000 O
   O1085       1.0     0.305560     0.527780     0.906250    Biso  1.000000 O
   O1086       1.0     0.291670     0.500000     0.760410    Biso  1.000000 O
   Ni130       1.0     0.305560     0.527780     0.166670    Biso  1.000000 Ni
   Mn355       1.0     0.291670     0.500000     0.500000    Biso  1.000000 Mn
   Mn356       1.0     0.319440     0.513890     0.833330    Biso  1.000000 Mn
   Na544       1.0     0.291670     0.541670     0.000000    Biso  1.000000 Na
   Na545       1.0     0.319440     0.555560     0.333330    Biso  1.000000 Na
   Na546       1.0     0.305560     0.569440     0.666670    Biso  1.000000 Na
   O1087       1.0     0.291670     0.541670     0.239590    Biso  1.000000 O
   O1088       1.0     0.319440     0.555560     0.093750    Biso  1.000000 O
   O1089       1.0     0.319440     0.555560     0.572920    Biso  1.000000 O
   O1090       1.0     0.305560     0.569440     0.427080    Biso  1.000000 O
   O1091       1.0     0.305560     0.569440     0.906250    Biso  1.000000 O
   O1092       1.0     0.291670     0.541670     0.760410    Biso  1.000000 O
   Mn357       1.0     0.305560     0.569440     0.166670    Biso  1.000000 Mn
   Ni131       1.0     0.291670     0.541670     0.500000    Biso  1.000000 Ni
   Mn358       1.0     0.319440     0.555560     0.833330    Biso  1.000000 Mn
   Na547       1.0     0.291670     0.583330     0.000000    Biso  1.000000 Na
   Na548       1.0     0.319440     0.597220     0.333330    Biso  1.000000 Na
   Na549       1.0     0.305560     0.611110     0.666670    Biso  1.000000 Na
   O1093       1.0     0.291670     0.583330     0.239590    Biso  1.000000 O
   O1094       1.0     0.319440     0.597220     0.093750    Biso  1.000000 O
   O1095       1.0     0.319440     0.597220     0.572920    Biso  1.000000 O
   O1096       1.0     0.305560     0.611110     0.427080    Biso  1.000000 O
   O1097       1.0     0.305560     0.611110     0.906250    Biso  1.000000 O
   O1098       1.0     0.291670     0.583330     0.760410    Biso  1.000000 O
   Mn359       1.0     0.305560     0.611110     0.166670    Biso  1.000000 Mn
   Mn360       1.0     0.291670     0.583330     0.500000    Biso  1.000000 Mn
   Ni132       1.0     0.319440     0.597220     0.833330    Biso  1.000000 Ni
   Na550       1.0     0.291670     0.625000     0.000000    Biso  1.000000 Na
   Na551       1.0     0.319440     0.638890     0.333330    Biso  1.000000 Na
   Na552       1.0     0.305560     0.652780     0.666670    Biso  1.000000 Na
   O1099       1.0     0.291670     0.625000     0.239590    Biso  1.000000 O
   O1100       1.0     0.319440     0.638890     0.093750    Biso  1.000000 O
   O1101       1.0     0.319440     0.638890     0.572920    Biso  1.000000 O
   O1102       1.0     0.305560     0.652780     0.427080    Biso  1.000000 O
   O1103       1.0     0.305560     0.652780     0.906250    Biso  1.000000 O
   O1104       1.0     0.291670     0.625000     0.760410    Biso  1.000000 O
   Ni133       1.0     0.305560     0.652780     0.166670    Biso  1.000000 Ni
   Mn361       1.0     0.291670     0.625000     0.500000    Biso  1.000000 Mn
   Mn362       1.0     0.319440     0.638890     0.833330    Biso  1.000000 Mn
   Na553       1.0     0.291670     0.666670     0.000000    Biso  1.000000 Na
   Na554       1.0     0.319440     0.680560     0.333330    Biso  1.000000 Na
   Na555       1.0     0.305560     0.694440     0.666670    Biso  1.000000 Na
   O1105       1.0     0.291670     0.666670     0.239590    Biso  1.000000 O
   O1106       1.0     0.319440     0.680560     0.093750    Biso  1.000000 O
   O1107       1.0     0.319440     0.680560     0.572920    Biso  1.000000 O
   O1108       1.0     0.305560     0.694440     0.427080    Biso  1.000000 O
   O1109       1.0     0.305560     0.694440     0.906250    Biso  1.000000 O
   O1110       1.0     0.291670     0.666670     0.760410    Biso  1.000000 O
   Mn363       1.0     0.305560     0.694440     0.166670    Biso  1.000000 Mn
   Li58        1.0     0.291670     0.666670     0.500000    Biso  1.000000 Li
   Mn364       1.0     0.319440     0.680560     0.833330    Biso  1.000000 Mn
   Na556       1.0     0.291670     0.708330     0.000000    Biso  1.000000 Na
   Na557       1.0     0.319440     0.722220     0.333330    Biso  1.000000 Na
   Na558       1.0     0.305560     0.736110     0.666670    Biso  1.000000 Na
   O1111       1.0     0.291670     0.708330     0.239590    Biso  1.000000 O
   O1112       1.0     0.319440     0.722220     0.093750    Biso  1.000000 O
   O1113       1.0     0.319440     0.722220     0.572920    Biso  1.000000 O
   O1114       1.0     0.305560     0.736110     0.427080    Biso  1.000000 O
   O1115       1.0     0.305560     0.736110     0.906250    Biso  1.000000 O
   O1116       1.0     0.291670     0.708330     0.760410    Biso  1.000000 O
   Mn365       1.0     0.305560     0.736110     0.166670    Biso  1.000000 Mn
   Mn366       1.0     0.291670     0.708330     0.500000    Biso  1.000000 Mn
   Mn367       1.0     0.319440     0.722220     0.833330    Biso  1.000000 Mn
   Na559       1.0     0.291670     0.750000     0.000000    Biso  1.000000 Na
   Na560       1.0     0.319440     0.763890     0.333330    Biso  1.000000 Na
   Na561       1.0     0.305560     0.777780     0.666670    Biso  1.000000 Na
   O1117       1.0     0.291670     0.750000     0.239590    Biso  1.000000 O
   O1118       1.0     0.319440     0.763890     0.093750    Biso  1.000000 O
   O1119       1.0     0.319440     0.763890     0.572920    Biso  1.000000 O
   O1120       1.0     0.305560     0.777780     0.427080    Biso  1.000000 O
   O1121       1.0     0.305560     0.777780     0.906250    Biso  1.000000 O
   O1122       1.0     0.291670     0.750000     0.760410    Biso  1.000000 O
   Li59        1.0     0.305560     0.777780     0.166670    Biso  1.000000 Li
   Mn368       1.0     0.291670     0.750000     0.500000    Biso  1.000000 Mn
   Li60        1.0     0.319440     0.763890     0.833330    Biso  1.000000 Li
   Na562       1.0     0.291670     0.791670     0.000000    Biso  1.000000 Na
   Na563       1.0     0.319440     0.805560     0.333330    Biso  1.000000 Na
   Na564       1.0     0.305560     0.819440     0.666670    Biso  1.000000 Na
   O1123       1.0     0.291670     0.791670     0.239590    Biso  1.000000 O
   O1124       1.0     0.319440     0.805560     0.093750    Biso  1.000000 O
   O1125       1.0     0.319440     0.805560     0.572920    Biso  1.000000 O
   O1126       1.0     0.305560     0.819440     0.427080    Biso  1.000000 O
   O1127       1.0     0.305560     0.819440     0.906250    Biso  1.000000 O
   O1128       1.0     0.291670     0.791670     0.760410    Biso  1.000000 O
   Mn369       1.0     0.305560     0.819440     0.166670    Biso  1.000000 Mn
   Li61        1.0     0.291670     0.791670     0.500000    Biso  1.000000 Li
   Mn370       1.0     0.319440     0.805560     0.833330    Biso  1.000000 Mn
   Na565       1.0     0.291670     0.833330     0.000000    Biso  1.000000 Na
   Na566       1.0     0.319440     0.847220     0.333330    Biso  1.000000 Na
   Na567       1.0     0.305560     0.861110     0.666670    Biso  1.000000 Na
   O1129       1.0     0.291670     0.833330     0.239590    Biso  1.000000 O
   O1130       1.0     0.319440     0.847220     0.093750    Biso  1.000000 O
   O1131       1.0     0.319440     0.847220     0.572920    Biso  1.000000 O
   O1132       1.0     0.305560     0.861110     0.427080    Biso  1.000000 O
   O1133       1.0     0.305560     0.861110     0.906250    Biso  1.000000 O
   O1134       1.0     0.291670     0.833330     0.760410    Biso  1.000000 O
   Mn371       1.0     0.305560     0.861110     0.166670    Biso  1.000000 Mn
   Mn372       1.0     0.291670     0.833330     0.500000    Biso  1.000000 Mn
   Ni134       1.0     0.319440     0.847220     0.833330    Biso  1.000000 Ni
   Na568       1.0     0.291670     0.875000     0.000000    Biso  1.000000 Na
   Na569       1.0     0.319440     0.888890     0.333330    Biso  1.000000 Na
   Na570       1.0     0.305560     0.902780     0.666670    Biso  1.000000 Na
   O1135       1.0     0.291670     0.875000     0.239590    Biso  1.000000 O
   O1136       1.0     0.319440     0.888890     0.093750    Biso  1.000000 O
   O1137       1.0     0.319440     0.888890     0.572920    Biso  1.000000 O
   O1138       1.0     0.305560     0.902780     0.427080    Biso  1.000000 O
   O1139       1.0     0.305560     0.902780     0.906250    Biso  1.000000 O
   O1140       1.0     0.291670     0.875000     0.760410    Biso  1.000000 O
   Li62        1.0     0.305560     0.902780     0.166670    Biso  1.000000 Li
   Li63        1.0     0.291670     0.875000     0.500000    Biso  1.000000 Li
   Mn373       1.0     0.319440     0.888890     0.833330    Biso  1.000000 Mn
   Na571       1.0     0.291670     0.916670     0.000000    Biso  1.000000 Na
   Na572       1.0     0.319440     0.930560     0.333330    Biso  1.000000 Na
   Na573       1.0     0.305560     0.944440     0.666670    Biso  1.000000 Na
   O1141       1.0     0.291670     0.916670     0.239590    Biso  1.000000 O
   O1142       1.0     0.319440     0.930560     0.093750    Biso  1.000000 O
   O1143       1.0     0.319440     0.930560     0.572920    Biso  1.000000 O
   O1144       1.0     0.305560     0.944440     0.427080    Biso  1.000000 O
   O1145       1.0     0.305560     0.944440     0.906250    Biso  1.000000 O
   O1146       1.0     0.291670     0.916670     0.760410    Biso  1.000000 O
   Mn374       1.0     0.305560     0.944440     0.166670    Biso  1.000000 Mn
   Mn375       1.0     0.291670     0.916670     0.500000    Biso  1.000000 Mn
   Mn376       1.0     0.319440     0.930560     0.833330    Biso  1.000000 Mn
   Na574       1.0     0.291670     0.958330     0.000000    Biso  1.000000 Na
   Na575       1.0     0.319440     0.972220     0.333330    Biso  1.000000 Na
   Na576       1.0     0.305560     0.986110     0.666670    Biso  1.000000 Na
   O1147       1.0     0.291670     0.958330     0.239590    Biso  1.000000 O
   O1148       1.0     0.319440     0.972220     0.093750    Biso  1.000000 O
   O1149       1.0     0.319440     0.972220     0.572920    Biso  1.000000 O
   O1150       1.0     0.305560     0.986110     0.427080    Biso  1.000000 O
   O1151       1.0     0.305560     0.986110     0.906250    Biso  1.000000 O
   O1152       1.0     0.291670     0.958330     0.760410    Biso  1.000000 O
   Mn377       1.0     0.305560     0.986110     0.166670    Biso  1.000000 Mn
   Mn378       1.0     0.291670     0.958330     0.500000    Biso  1.000000 Mn
   Li64        1.0     0.319440     0.972220     0.833330    Biso  1.000000 Li
   Na577       1.0     0.333330     0.000000     0.000000    Biso  1.000000 Na
   Na578       1.0     0.361110     0.013890     0.333330    Biso  1.000000 Na
   Na579       1.0     0.347220     0.027780     0.666670    Biso  1.000000 Na
   O1153       1.0     0.333330     0.000000     0.239590    Biso  1.000000 O
   O1154       1.0     0.361110     0.013890     0.093750    Biso  1.000000 O
   O1155       1.0     0.361110     0.013890     0.572920    Biso  1.000000 O
   O1156       1.0     0.347220     0.027780     0.427080    Biso  1.000000 O
   O1157       1.0     0.347220     0.027780     0.906250    Biso  1.000000 O
   O1158       1.0     0.333330     0.000000     0.760410    Biso  1.000000 O
   Mn379       1.0     0.347220     0.027780     0.166670    Biso  1.000000 Mn
   Mn380       1.0     0.333330     0.000000     0.500000    Biso  1.000000 Mn
   Mn381       1.0     0.361110     0.013890     0.833330    Biso  1.000000 Mn
   Na580       1.0     0.333330     0.041670     0.000000    Biso  1.000000 Na
   Na581       1.0     0.361110     0.055560     0.333330    Biso  1.000000 Na
   Na582       1.0     0.347220     0.069440     0.666670    Biso  1.000000 Na
   O1159       1.0     0.333330     0.041670     0.239590    Biso  1.000000 O
   O1160       1.0     0.361110     0.055560     0.093750    Biso  1.000000 O
   O1161       1.0     0.361110     0.055560     0.572920    Biso  1.000000 O
   O1162       1.0     0.347220     0.069440     0.427080    Biso  1.000000 O
   O1163       1.0     0.347220     0.069440     0.906250    Biso  1.000000 O
   O1164       1.0     0.333330     0.041670     0.760410    Biso  1.000000 O
   Mn382       1.0     0.347220     0.069440     0.166670    Biso  1.000000 Mn
   Mn383       1.0     0.333330     0.041670     0.500000    Biso  1.000000 Mn
   Li65        1.0     0.361110     0.055560     0.833330    Biso  1.000000 Li
   Na583       1.0     0.333330     0.083330     0.000000    Biso  1.000000 Na
   Na584       1.0     0.361110     0.097220     0.333330    Biso  1.000000 Na
   Na585       1.0     0.347220     0.111110     0.666670    Biso  1.000000 Na
   O1165       1.0     0.333330     0.083330     0.239590    Biso  1.000000 O
   O1166       1.0     0.361110     0.097220     0.093750    Biso  1.000000 O
   O1167       1.0     0.361110     0.097220     0.572920    Biso  1.000000 O
   O1168       1.0     0.347220     0.111110     0.427080    Biso  1.000000 O
   O1169       1.0     0.347220     0.111110     0.906250    Biso  1.000000 O
   O1170       1.0     0.333330     0.083330     0.760410    Biso  1.000000 O
   Li66        1.0     0.347220     0.111110     0.166670    Biso  1.000000 Li
   Li67        1.0     0.333330     0.083330     0.500000    Biso  1.000000 Li
   Mn384       1.0     0.361110     0.097220     0.833330    Biso  1.000000 Mn
   Na586       1.0     0.333330     0.125000     0.000000    Biso  1.000000 Na
   Na587       1.0     0.361110     0.138890     0.333330    Biso  1.000000 Na
   Na588       1.0     0.347220     0.152780     0.666670    Biso  1.000000 Na
   O1171       1.0     0.333330     0.125000     0.239590    Biso  1.000000 O
   O1172       1.0     0.361110     0.138890     0.093750    Biso  1.000000 O
   O1173       1.0     0.361110     0.138890     0.572920    Biso  1.000000 O
   O1174       1.0     0.347220     0.152780     0.427080    Biso  1.000000 O
   O1175       1.0     0.347220     0.152780     0.906250    Biso  1.000000 O
   O1176       1.0     0.333330     0.125000     0.760410    Biso  1.000000 O
   Mn385       1.0     0.347220     0.152780     0.166670    Biso  1.000000 Mn
   Mn386       1.0     0.333330     0.125000     0.500000    Biso  1.000000 Mn
   Mn387       1.0     0.361110     0.138890     0.833330    Biso  1.000000 Mn
   Na589       1.0     0.333330     0.166670     0.000000    Biso  1.000000 Na
   Na590       1.0     0.361110     0.180560     0.333330    Biso  1.000000 Na
   Na591       1.0     0.347220     0.194440     0.666670    Biso  1.000000 Na
   O1177       1.0     0.333330     0.166670     0.239590    Biso  1.000000 O
   O1178       1.0     0.361110     0.180560     0.093750    Biso  1.000000 O
   O1179       1.0     0.361110     0.180560     0.572920    Biso  1.000000 O
   O1180       1.0     0.347220     0.194440     0.427080    Biso  1.000000 O
   O1181       1.0     0.347220     0.194440     0.906250    Biso  1.000000 O
   O1182       1.0     0.333330     0.166670     0.760410    Biso  1.000000 O
   Mn388       1.0     0.347220     0.194440     0.166670    Biso  1.000000 Mn
   Mn389       1.0     0.333330     0.166670     0.500000    Biso  1.000000 Mn
   Li68        1.0     0.361110     0.180560     0.833330    Biso  1.000000 Li
   Na592       1.0     0.333330     0.208330     0.000000    Biso  1.000000 Na
   Na593       1.0     0.361110     0.222220     0.333330    Biso  1.000000 Na
   Na594       1.0     0.347220     0.236110     0.666670    Biso  1.000000 Na
   O1183       1.0     0.333330     0.208330     0.239590    Biso  1.000000 O
   O1184       1.0     0.361110     0.222220     0.093750    Biso  1.000000 O
   O1185       1.0     0.361110     0.222220     0.572920    Biso  1.000000 O
   O1186       1.0     0.347220     0.236110     0.427080    Biso  1.000000 O
   O1187       1.0     0.347220     0.236110     0.906250    Biso  1.000000 O
   O1188       1.0     0.333330     0.208330     0.760410    Biso  1.000000 O
   Ni135       1.0     0.347220     0.236110     0.166670    Biso  1.000000 Ni
   Ni136       1.0     0.333330     0.208330     0.500000    Biso  1.000000 Ni
   Mn390       1.0     0.361110     0.222220     0.833330    Biso  1.000000 Mn
   Na595       1.0     0.333330     0.250000     0.000000    Biso  1.000000 Na
   Na596       1.0     0.361110     0.263890     0.333330    Biso  1.000000 Na
   Na597       1.0     0.347220     0.277780     0.666670    Biso  1.000000 Na
   O1189       1.0     0.333330     0.250000     0.239590    Biso  1.000000 O
   O1190       1.0     0.361110     0.263890     0.093750    Biso  1.000000 O
   O1191       1.0     0.361110     0.263890     0.572920    Biso  1.000000 O
   O1192       1.0     0.347220     0.277780     0.427080    Biso  1.000000 O
   O1193       1.0     0.347220     0.277780     0.906250    Biso  1.000000 O
   O1194       1.0     0.333330     0.250000     0.760410    Biso  1.000000 O
   Mn391       1.0     0.347220     0.277780     0.166670    Biso  1.000000 Mn
   Mn392       1.0     0.333330     0.250000     0.500000    Biso  1.000000 Mn
   Mn393       1.0     0.361110     0.263890     0.833330    Biso  1.000000 Mn
   Na598       1.0     0.333330     0.291670     0.000000    Biso  1.000000 Na
   Na599       1.0     0.361110     0.305560     0.333330    Biso  1.000000 Na
   Na600       1.0     0.347220     0.319440     0.666670    Biso  1.000000 Na
   O1195       1.0     0.333330     0.291670     0.239590    Biso  1.000000 O
   O1196       1.0     0.361110     0.305560     0.093750    Biso  1.000000 O
   O1197       1.0     0.361110     0.305560     0.572920    Biso  1.000000 O
   O1198       1.0     0.347220     0.319440     0.427080    Biso  1.000000 O
   O1199       1.0     0.347220     0.319440     0.906250    Biso  1.000000 O
   O1200       1.0     0.333330     0.291670     0.760410    Biso  1.000000 O
   Mn394       1.0     0.347220     0.319440     0.166670    Biso  1.000000 Mn
   Mn395       1.0     0.333330     0.291670     0.500000    Biso  1.000000 Mn
   Mn396       1.0     0.361110     0.305560     0.833330    Biso  1.000000 Mn
   Na601       1.0     0.333330     0.333330     0.000000    Biso  1.000000 Na
   Na602       1.0     0.361110     0.347220     0.333330    Biso  1.000000 Na
   Na603       1.0     0.347220     0.361110     0.666670    Biso  1.000000 Na
   O1201       1.0     0.333330     0.333330     0.239590    Biso  1.000000 O
   O1202       1.0     0.361110     0.347220     0.093750    Biso  1.000000 O
   O1203       1.0     0.361110     0.347220     0.572920    Biso  1.000000 O
   O1204       1.0     0.347220     0.361110     0.427080    Biso  1.000000 O
   O1205       1.0     0.347220     0.361110     0.906250    Biso  1.000000 O
   O1206       1.0     0.333330     0.333330     0.760410    Biso  1.000000 O
   Ni137       1.0     0.347220     0.361110     0.166670    Biso  1.000000 Ni
   Mn397       1.0     0.333330     0.333330     0.500000    Biso  1.000000 Mn
   Mn398       1.0     0.361110     0.347220     0.833330    Biso  1.000000 Mn
   Na604       1.0     0.333330     0.375000     0.000000    Biso  1.000000 Na
   Na605       1.0     0.361110     0.388890     0.333330    Biso  1.000000 Na
   Na606       1.0     0.347220     0.402780     0.666670    Biso  1.000000 Na
   O1207       1.0     0.333330     0.375000     0.239590    Biso  1.000000 O
   O1208       1.0     0.361110     0.388890     0.093750    Biso  1.000000 O
   O1209       1.0     0.361110     0.388890     0.572920    Biso  1.000000 O
   O1210       1.0     0.347220     0.402780     0.427080    Biso  1.000000 O
   O1211       1.0     0.347220     0.402780     0.906250    Biso  1.000000 O
   O1212       1.0     0.333330     0.375000     0.760410    Biso  1.000000 O
   Mn399       1.0     0.347220     0.402780     0.166670    Biso  1.000000 Mn
   Mn400       1.0     0.333330     0.375000     0.500000    Biso  1.000000 Mn
   Ni138       1.0     0.361110     0.388890     0.833330    Biso  1.000000 Ni
   Na607       1.0     0.333330     0.416670     0.000000    Biso  1.000000 Na
   Na608       1.0     0.361110     0.430560     0.333330    Biso  1.000000 Na
   Na609       1.0     0.347220     0.444440     0.666670    Biso  1.000000 Na
   O1213       1.0     0.333330     0.416670     0.239590    Biso  1.000000 O
   O1214       1.0     0.361110     0.430560     0.093750    Biso  1.000000 O
   O1215       1.0     0.361110     0.430560     0.572920    Biso  1.000000 O
   O1216       1.0     0.347220     0.444440     0.427080    Biso  1.000000 O
   O1217       1.0     0.347220     0.444440     0.906250    Biso  1.000000 O
   O1218       1.0     0.333330     0.416670     0.760410    Biso  1.000000 O
   Mn401       1.0     0.347220     0.444440     0.166670    Biso  1.000000 Mn
   Mn402       1.0     0.333330     0.416670     0.500000    Biso  1.000000 Mn
   Mn403       1.0     0.361110     0.430560     0.833330    Biso  1.000000 Mn
   Na610       1.0     0.333330     0.458330     0.000000    Biso  1.000000 Na
   Na611       1.0     0.361110     0.472220     0.333330    Biso  1.000000 Na
   Na612       1.0     0.347220     0.486110     0.666670    Biso  1.000000 Na
   O1219       1.0     0.333330     0.458330     0.239590    Biso  1.000000 O
   O1220       1.0     0.361110     0.472220     0.093750    Biso  1.000000 O
   O1221       1.0     0.361110     0.472220     0.572920    Biso  1.000000 O
   O1222       1.0     0.347220     0.486110     0.427080    Biso  1.000000 O
   O1223       1.0     0.347220     0.486110     0.906250    Biso  1.000000 O
   O1224       1.0     0.333330     0.458330     0.760410    Biso  1.000000 O
   Mn404       1.0     0.347220     0.486110     0.166670    Biso  1.000000 Mn
   Ni139       1.0     0.333330     0.458330     0.500000    Biso  1.000000 Ni
   Ni140       1.0     0.361110     0.472220     0.833330    Biso  1.000000 Ni
   Na613       1.0     0.333330     0.500000     0.000000    Biso  1.000000 Na
   Na614       1.0     0.361110     0.513890     0.333330    Biso  1.000000 Na
   Na615       1.0     0.347220     0.527780     0.666670    Biso  1.000000 Na
   O1225       1.0     0.333330     0.500000     0.239590    Biso  1.000000 O
   O1226       1.0     0.361110     0.513890     0.093750    Biso  1.000000 O
   O1227       1.0     0.361110     0.513890     0.572920    Biso  1.000000 O
   O1228       1.0     0.347220     0.527780     0.427080    Biso  1.000000 O
   O1229       1.0     0.347220     0.527780     0.906250    Biso  1.000000 O
   O1230       1.0     0.333330     0.500000     0.760410    Biso  1.000000 O
   Ni141       1.0     0.347220     0.527780     0.166670    Biso  1.000000 Ni
   Mn405       1.0     0.333330     0.500000     0.500000    Biso  1.000000 Mn
   Mn406       1.0     0.361110     0.513890     0.833330    Biso  1.000000 Mn
   Na616       1.0     0.333330     0.541670     0.000000    Biso  1.000000 Na
   Na617       1.0     0.361110     0.555560     0.333330    Biso  1.000000 Na
   Na618       1.0     0.347220     0.569440     0.666670    Biso  1.000000 Na
   O1231       1.0     0.333330     0.541670     0.239590    Biso  1.000000 O
   O1232       1.0     0.361110     0.555560     0.093750    Biso  1.000000 O
   O1233       1.0     0.361110     0.555560     0.572920    Biso  1.000000 O
   O1234       1.0     0.347220     0.569440     0.427080    Biso  1.000000 O
   O1235       1.0     0.347220     0.569440     0.906250    Biso  1.000000 O
   O1236       1.0     0.333330     0.541670     0.760410    Biso  1.000000 O
   Ni142       1.0     0.347220     0.569440     0.166670    Biso  1.000000 Ni
   Mn407       1.0     0.333330     0.541670     0.500000    Biso  1.000000 Mn
   Ni143       1.0     0.361110     0.555560     0.833330    Biso  1.000000 Ni
   Na619       1.0     0.333330     0.583330     0.000000    Biso  1.000000 Na
   Na620       1.0     0.361110     0.597220     0.333330    Biso  1.000000 Na
   Na621       1.0     0.347220     0.611110     0.666670    Biso  1.000000 Na
   O1237       1.0     0.333330     0.583330     0.239590    Biso  1.000000 O
   O1238       1.0     0.361110     0.597220     0.093750    Biso  1.000000 O
   O1239       1.0     0.361110     0.597220     0.572920    Biso  1.000000 O
   O1240       1.0     0.347220     0.611110     0.427080    Biso  1.000000 O
   O1241       1.0     0.347220     0.611110     0.906250    Biso  1.000000 O
   O1242       1.0     0.333330     0.583330     0.760410    Biso  1.000000 O
   Ni144       1.0     0.347220     0.611110     0.166670    Biso  1.000000 Ni
   Mn408       1.0     0.333330     0.583330     0.500000    Biso  1.000000 Mn
   Mn409       1.0     0.361110     0.597220     0.833330    Biso  1.000000 Mn
   Na622       1.0     0.333330     0.625000     0.000000    Biso  1.000000 Na
   Na623       1.0     0.361110     0.638890     0.333330    Biso  1.000000 Na
   Na624       1.0     0.347220     0.652780     0.666670    Biso  1.000000 Na
   O1243       1.0     0.333330     0.625000     0.239590    Biso  1.000000 O
   O1244       1.0     0.361110     0.638890     0.093750    Biso  1.000000 O
   O1245       1.0     0.361110     0.638890     0.572920    Biso  1.000000 O
   O1246       1.0     0.347220     0.652780     0.427080    Biso  1.000000 O
   O1247       1.0     0.347220     0.652780     0.906250    Biso  1.000000 O
   O1248       1.0     0.333330     0.625000     0.760410    Biso  1.000000 O
   Mn410       1.0     0.347220     0.652780     0.166670    Biso  1.000000 Mn
   Ni145       1.0     0.333330     0.625000     0.500000    Biso  1.000000 Ni
   Mn411       1.0     0.361110     0.638890     0.833330    Biso  1.000000 Mn
   Na625       1.0     0.333330     0.666670     0.000000    Biso  1.000000 Na
   Na626       1.0     0.361110     0.680560     0.333330    Biso  1.000000 Na
   Na627       1.0     0.347220     0.694440     0.666670    Biso  1.000000 Na
   O1249       1.0     0.333330     0.666670     0.239590    Biso  1.000000 O
   O1250       1.0     0.361110     0.680560     0.093750    Biso  1.000000 O
   O1251       1.0     0.361110     0.680560     0.572920    Biso  1.000000 O
   O1252       1.0     0.347220     0.694440     0.427080    Biso  1.000000 O
   O1253       1.0     0.347220     0.694440     0.906250    Biso  1.000000 O
   O1254       1.0     0.333330     0.666670     0.760410    Biso  1.000000 O
   Mn412       1.0     0.347220     0.694440     0.166670    Biso  1.000000 Mn
   Mn413       1.0     0.333330     0.666670     0.500000    Biso  1.000000 Mn
   Li69        1.0     0.361110     0.680560     0.833330    Biso  1.000000 Li
   Na628       1.0     0.333330     0.708330     0.000000    Biso  1.000000 Na
   Na629       1.0     0.361110     0.722220     0.333330    Biso  1.000000 Na
   Na630       1.0     0.347220     0.736110     0.666670    Biso  1.000000 Na
   O1255       1.0     0.333330     0.708330     0.239590    Biso  1.000000 O
   O1256       1.0     0.361110     0.722220     0.093750    Biso  1.000000 O
   O1257       1.0     0.361110     0.722220     0.572920    Biso  1.000000 O
   O1258       1.0     0.347220     0.736110     0.427080    Biso  1.000000 O
   O1259       1.0     0.347220     0.736110     0.906250    Biso  1.000000 O
   O1260       1.0     0.333330     0.708330     0.760410    Biso  1.000000 O
   Li70        1.0     0.347220     0.736110     0.166670    Biso  1.000000 Li
   Mn414       1.0     0.333330     0.708330     0.500000    Biso  1.000000 Mn
   Mn415       1.0     0.361110     0.722220     0.833330    Biso  1.000000 Mn
   Na631       1.0     0.333330     0.750000     0.000000    Biso  1.000000 Na
   Na632       1.0     0.361110     0.763890     0.333330    Biso  1.000000 Na
   Na633       1.0     0.347220     0.777780     0.666670    Biso  1.000000 Na
   O1261       1.0     0.333330     0.750000     0.239590    Biso  1.000000 O
   O1262       1.0     0.361110     0.763890     0.093750    Biso  1.000000 O
   O1263       1.0     0.361110     0.763890     0.572920    Biso  1.000000 O
   O1264       1.0     0.347220     0.777780     0.427080    Biso  1.000000 O
   O1265       1.0     0.347220     0.777780     0.906250    Biso  1.000000 O
   O1266       1.0     0.333330     0.750000     0.760410    Biso  1.000000 O
   Mn416       1.0     0.347220     0.777780     0.166670    Biso  1.000000 Mn
   Li71        1.0     0.333330     0.750000     0.500000    Biso  1.000000 Li
   Mn417       1.0     0.361110     0.763890     0.833330    Biso  1.000000 Mn
   Na634       1.0     0.333330     0.791670     0.000000    Biso  1.000000 Na
   Na635       1.0     0.361110     0.805560     0.333330    Biso  1.000000 Na
   Na636       1.0     0.347220     0.819440     0.666670    Biso  1.000000 Na
   O1267       1.0     0.333330     0.791670     0.239590    Biso  1.000000 O
   O1268       1.0     0.361110     0.805560     0.093750    Biso  1.000000 O
   O1269       1.0     0.361110     0.805560     0.572920    Biso  1.000000 O
   O1270       1.0     0.347220     0.819440     0.427080    Biso  1.000000 O
   O1271       1.0     0.347220     0.819440     0.906250    Biso  1.000000 O
   O1272       1.0     0.333330     0.791670     0.760410    Biso  1.000000 O
   Mn418       1.0     0.347220     0.819440     0.166670    Biso  1.000000 Mn
   Mn419       1.0     0.333330     0.791670     0.500000    Biso  1.000000 Mn
   Mn420       1.0     0.361110     0.805560     0.833330    Biso  1.000000 Mn
   Na637       1.0     0.333330     0.833330     0.000000    Biso  1.000000 Na
   Na638       1.0     0.361110     0.847220     0.333330    Biso  1.000000 Na
   Na639       1.0     0.347220     0.861110     0.666670    Biso  1.000000 Na
   O1273       1.0     0.333330     0.833330     0.239590    Biso  1.000000 O
   O1274       1.0     0.361110     0.847220     0.093750    Biso  1.000000 O
   O1275       1.0     0.361110     0.847220     0.572920    Biso  1.000000 O
   O1276       1.0     0.347220     0.861110     0.427080    Biso  1.000000 O
   O1277       1.0     0.347220     0.861110     0.906250    Biso  1.000000 O
   O1278       1.0     0.333330     0.833330     0.760410    Biso  1.000000 O
   Li72        1.0     0.347220     0.861110     0.166670    Biso  1.000000 Li
   Mn421       1.0     0.333330     0.833330     0.500000    Biso  1.000000 Mn
   Mn422       1.0     0.361110     0.847220     0.833330    Biso  1.000000 Mn
   Na640       1.0     0.333330     0.875000     0.000000    Biso  1.000000 Na
   Na641       1.0     0.361110     0.888890     0.333330    Biso  1.000000 Na
   Na642       1.0     0.347220     0.902780     0.666670    Biso  1.000000 Na
   O1279       1.0     0.333330     0.875000     0.239590    Biso  1.000000 O
   O1280       1.0     0.361110     0.888890     0.093750    Biso  1.000000 O
   O1281       1.0     0.361110     0.888890     0.572920    Biso  1.000000 O
   O1282       1.0     0.347220     0.902780     0.427080    Biso  1.000000 O
   O1283       1.0     0.347220     0.902780     0.906250    Biso  1.000000 O
   O1284       1.0     0.333330     0.875000     0.760410    Biso  1.000000 O
   Mn423       1.0     0.347220     0.902780     0.166670    Biso  1.000000 Mn
   Mn424       1.0     0.333330     0.875000     0.500000    Biso  1.000000 Mn
   Mn425       1.0     0.361110     0.888890     0.833330    Biso  1.000000 Mn
   Na643       1.0     0.333330     0.916670     0.000000    Biso  1.000000 Na
   Na644       1.0     0.361110     0.930560     0.333330    Biso  1.000000 Na
   Na645       1.0     0.347220     0.944440     0.666670    Biso  1.000000 Na
   O1285       1.0     0.333330     0.916670     0.239590    Biso  1.000000 O
   O1286       1.0     0.361110     0.930560     0.093750    Biso  1.000000 O
   O1287       1.0     0.361110     0.930560     0.572920    Biso  1.000000 O
   O1288       1.0     0.347220     0.944440     0.427080    Biso  1.000000 O
   O1289       1.0     0.347220     0.944440     0.906250    Biso  1.000000 O
   O1290       1.0     0.333330     0.916670     0.760410    Biso  1.000000 O
   Mn426       1.0     0.347220     0.944440     0.166670    Biso  1.000000 Mn
   Mn427       1.0     0.333330     0.916670     0.500000    Biso  1.000000 Mn
   Li73        1.0     0.361110     0.930560     0.833330    Biso  1.000000 Li
   Na646       1.0     0.333330     0.958330     0.000000    Biso  1.000000 Na
   Na647       1.0     0.361110     0.972220     0.333330    Biso  1.000000 Na
   Na648       1.0     0.347220     0.986110     0.666670    Biso  1.000000 Na
   O1291       1.0     0.333330     0.958330     0.239590    Biso  1.000000 O
   O1292       1.0     0.361110     0.972220     0.093750    Biso  1.000000 O
   O1293       1.0     0.361110     0.972220     0.572920    Biso  1.000000 O
   O1294       1.0     0.347220     0.986110     0.427080    Biso  1.000000 O
   O1295       1.0     0.347220     0.986110     0.906250    Biso  1.000000 O
   O1296       1.0     0.333330     0.958330     0.760410    Biso  1.000000 O
   Li74        1.0     0.347220     0.986110     0.166670    Biso  1.000000 Li
   Li75        1.0     0.333330     0.958330     0.500000    Biso  1.000000 Li
   Mn428       1.0     0.361110     0.972220     0.833330    Biso  1.000000 Mn
   Na649       1.0     0.375000     0.000000     0.000000    Biso  1.000000 Na
   Na650       1.0     0.402780     0.013890     0.333330    Biso  1.000000 Na
   Na651       1.0     0.388890     0.027780     0.666670    Biso  1.000000 Na
   O1297       1.0     0.375000     0.000000     0.239590    Biso  1.000000 O
   O1298       1.0     0.402780     0.013890     0.093750    Biso  1.000000 O
   O1299       1.0     0.402780     0.013890     0.572920    Biso  1.000000 O
   O1300       1.0     0.388890     0.027780     0.427080    Biso  1.000000 O
   O1301       1.0     0.388890     0.027780     0.906250    Biso  1.000000 O
   O1302       1.0     0.375000     0.000000     0.760410    Biso  1.000000 O
   Mn429       1.0     0.388890     0.027780     0.166670    Biso  1.000000 Mn
   Mn430       1.0     0.375000     0.000000     0.500000    Biso  1.000000 Mn
   Li76        1.0     0.402780     0.013890     0.833330    Biso  1.000000 Li
   Na652       1.0     0.375000     0.041670     0.000000    Biso  1.000000 Na
   Na653       1.0     0.402780     0.055560     0.333330    Biso  1.000000 Na
   Na654       1.0     0.388890     0.069440     0.666670    Biso  1.000000 Na
   O1303       1.0     0.375000     0.041670     0.239590    Biso  1.000000 O
   O1304       1.0     0.402780     0.055560     0.093750    Biso  1.000000 O
   O1305       1.0     0.402780     0.055560     0.572920    Biso  1.000000 O
   O1306       1.0     0.388890     0.069440     0.427080    Biso  1.000000 O
   O1307       1.0     0.388890     0.069440     0.906250    Biso  1.000000 O
   O1308       1.0     0.375000     0.041670     0.760410    Biso  1.000000 O
   Li77        1.0     0.388890     0.069440     0.166670    Biso  1.000000 Li
   Li78        1.0     0.375000     0.041670     0.500000    Biso  1.000000 Li
   Mn431       1.0     0.402780     0.055560     0.833330    Biso  1.000000 Mn
   Na655       1.0     0.375000     0.083330     0.000000    Biso  1.000000 Na
   Na656       1.0     0.402780     0.097220     0.333330    Biso  1.000000 Na
   Na657       1.0     0.388890     0.111110     0.666670    Biso  1.000000 Na
   O1309       1.0     0.375000     0.083330     0.239590    Biso  1.000000 O
   O1310       1.0     0.402780     0.097220     0.093750    Biso  1.000000 O
   O1311       1.0     0.402780     0.097220     0.572920    Biso  1.000000 O
   O1312       1.0     0.388890     0.111110     0.427080    Biso  1.000000 O
   O1313       1.0     0.388890     0.111110     0.906250    Biso  1.000000 O
   O1314       1.0     0.375000     0.083330     0.760410    Biso  1.000000 O
   Mn432       1.0     0.388890     0.111110     0.166670    Biso  1.000000 Mn
   Mn433       1.0     0.375000     0.083330     0.500000    Biso  1.000000 Mn
   Mn434       1.0     0.402780     0.097220     0.833330    Biso  1.000000 Mn
   Na658       1.0     0.375000     0.125000     0.000000    Biso  1.000000 Na
   Na659       1.0     0.402780     0.138890     0.333330    Biso  1.000000 Na
   Na660       1.0     0.388890     0.152780     0.666670    Biso  1.000000 Na
   O1315       1.0     0.375000     0.125000     0.239590    Biso  1.000000 O
   O1316       1.0     0.402780     0.138890     0.093750    Biso  1.000000 O
   O1317       1.0     0.402780     0.138890     0.572920    Biso  1.000000 O
   O1318       1.0     0.388890     0.152780     0.427080    Biso  1.000000 O
   O1319       1.0     0.388890     0.152780     0.906250    Biso  1.000000 O
   O1320       1.0     0.375000     0.125000     0.760410    Biso  1.000000 O
   Mn435       1.0     0.388890     0.152780     0.166670    Biso  1.000000 Mn
   Mn436       1.0     0.375000     0.125000     0.500000    Biso  1.000000 Mn
   Li79        1.0     0.402780     0.138890     0.833330    Biso  1.000000 Li
   Na661       1.0     0.375000     0.166670     0.000000    Biso  1.000000 Na
   Na662       1.0     0.402780     0.180560     0.333330    Biso  1.000000 Na
   Na663       1.0     0.388890     0.194440     0.666670    Biso  1.000000 Na
   O1321       1.0     0.375000     0.166670     0.239590    Biso  1.000000 O
   O1322       1.0     0.402780     0.180560     0.093750    Biso  1.000000 O
   O1323       1.0     0.402780     0.180560     0.572920    Biso  1.000000 O
   O1324       1.0     0.388890     0.194440     0.427080    Biso  1.000000 O
   O1325       1.0     0.388890     0.194440     0.906250    Biso  1.000000 O
   O1326       1.0     0.375000     0.166670     0.760410    Biso  1.000000 O
   Li80        1.0     0.388890     0.194440     0.166670    Biso  1.000000 Li
   Li81        1.0     0.375000     0.166670     0.500000    Biso  1.000000 Li
   Mn437       1.0     0.402780     0.180560     0.833330    Biso  1.000000 Mn
   Na664       1.0     0.375000     0.208330     0.000000    Biso  1.000000 Na
   Na665       1.0     0.402780     0.222220     0.333330    Biso  1.000000 Na
   Na666       1.0     0.388890     0.236110     0.666670    Biso  1.000000 Na
   O1327       1.0     0.375000     0.208330     0.239590    Biso  1.000000 O
   O1328       1.0     0.402780     0.222220     0.093750    Biso  1.000000 O
   O1329       1.0     0.402780     0.222220     0.572920    Biso  1.000000 O
   O1330       1.0     0.388890     0.236110     0.427080    Biso  1.000000 O
   O1331       1.0     0.388890     0.236110     0.906250    Biso  1.000000 O
   O1332       1.0     0.375000     0.208330     0.760410    Biso  1.000000 O
   Mn438       1.0     0.388890     0.236110     0.166670    Biso  1.000000 Mn
   Mn439       1.0     0.375000     0.208330     0.500000    Biso  1.000000 Mn
   Mn440       1.0     0.402780     0.222220     0.833330    Biso  1.000000 Mn
   Na667       1.0     0.375000     0.250000     0.000000    Biso  1.000000 Na
   Na668       1.0     0.402780     0.263890     0.333330    Biso  1.000000 Na
   Na669       1.0     0.388890     0.277780     0.666670    Biso  1.000000 Na
   O1333       1.0     0.375000     0.250000     0.239590    Biso  1.000000 O
   O1334       1.0     0.402780     0.263890     0.093750    Biso  1.000000 O
   O1335       1.0     0.402780     0.263890     0.572920    Biso  1.000000 O
   O1336       1.0     0.388890     0.277780     0.427080    Biso  1.000000 O
   O1337       1.0     0.388890     0.277780     0.906250    Biso  1.000000 O
   O1338       1.0     0.375000     0.250000     0.760410    Biso  1.000000 O
   Mn441       1.0     0.388890     0.277780     0.166670    Biso  1.000000 Mn
   Mn442       1.0     0.375000     0.250000     0.500000    Biso  1.000000 Mn
   Ni146       1.0     0.402780     0.263890     0.833330    Biso  1.000000 Ni
   Na670       1.0     0.375000     0.291670     0.000000    Biso  1.000000 Na
   Na671       1.0     0.402780     0.305560     0.333330    Biso  1.000000 Na
   Na672       1.0     0.388890     0.319440     0.666670    Biso  1.000000 Na
   O1339       1.0     0.375000     0.291670     0.239590    Biso  1.000000 O
   O1340       1.0     0.402780     0.305560     0.093750    Biso  1.000000 O
   O1341       1.0     0.402780     0.305560     0.572920    Biso  1.000000 O
   O1342       1.0     0.388890     0.319440     0.427080    Biso  1.000000 O
   O1343       1.0     0.388890     0.319440     0.906250    Biso  1.000000 O
   O1344       1.0     0.375000     0.291670     0.760410    Biso  1.000000 O
   Ni147       1.0     0.388890     0.319440     0.166670    Biso  1.000000 Ni
   Ni148       1.0     0.375000     0.291670     0.500000    Biso  1.000000 Ni
   Mn443       1.0     0.402780     0.305560     0.833330    Biso  1.000000 Mn
   Na673       1.0     0.375000     0.333330     0.000000    Biso  1.000000 Na
   Na674       1.0     0.402780     0.347220     0.333330    Biso  1.000000 Na
   Na675       1.0     0.388890     0.361110     0.666670    Biso  1.000000 Na
   O1345       1.0     0.375000     0.333330     0.239590    Biso  1.000000 O
   O1346       1.0     0.402780     0.347220     0.093750    Biso  1.000000 O
   O1347       1.0     0.402780     0.347220     0.572920    Biso  1.000000 O
   O1348       1.0     0.388890     0.361110     0.427080    Biso  1.000000 O
   O1349       1.0     0.388890     0.361110     0.906250    Biso  1.000000 O
   O1350       1.0     0.375000     0.333330     0.760410    Biso  1.000000 O
   Mn444       1.0     0.388890     0.361110     0.166670    Biso  1.000000 Mn
   Ni149       1.0     0.375000     0.333330     0.500000    Biso  1.000000 Ni
   Ni150       1.0     0.402780     0.347220     0.833330    Biso  1.000000 Ni
   Na676       1.0     0.375000     0.375000     0.000000    Biso  1.000000 Na
   Na677       1.0     0.402780     0.388890     0.333330    Biso  1.000000 Na
   Na678       1.0     0.388890     0.402780     0.666670    Biso  1.000000 Na
   O1351       1.0     0.375000     0.375000     0.239590    Biso  1.000000 O
   O1352       1.0     0.402780     0.388890     0.093750    Biso  1.000000 O
   O1353       1.0     0.402780     0.388890     0.572920    Biso  1.000000 O
   O1354       1.0     0.388890     0.402780     0.427080    Biso  1.000000 O
   O1355       1.0     0.388890     0.402780     0.906250    Biso  1.000000 O
   O1356       1.0     0.375000     0.375000     0.760410    Biso  1.000000 O
   Mn445       1.0     0.388890     0.402780     0.166670    Biso  1.000000 Mn
   Mn446       1.0     0.375000     0.375000     0.500000    Biso  1.000000 Mn
   Mn447       1.0     0.402780     0.388890     0.833330    Biso  1.000000 Mn
   Na679       1.0     0.375000     0.416670     0.000000    Biso  1.000000 Na
   Na680       1.0     0.402780     0.430560     0.333330    Biso  1.000000 Na
   Na681       1.0     0.388890     0.444440     0.666670    Biso  1.000000 Na
   O1357       1.0     0.375000     0.416670     0.239590    Biso  1.000000 O
   O1358       1.0     0.402780     0.430560     0.093750    Biso  1.000000 O
   O1359       1.0     0.402780     0.430560     0.572920    Biso  1.000000 O
   O1360       1.0     0.388890     0.444440     0.427080    Biso  1.000000 O
   O1361       1.0     0.388890     0.444440     0.906250    Biso  1.000000 O
   O1362       1.0     0.375000     0.416670     0.760410    Biso  1.000000 O
   Ni151       1.0     0.388890     0.444440     0.166670    Biso  1.000000 Ni
   Ni152       1.0     0.375000     0.416670     0.500000    Biso  1.000000 Ni
   Mn448       1.0     0.402780     0.430560     0.833330    Biso  1.000000 Mn
   Na682       1.0     0.375000     0.458330     0.000000    Biso  1.000000 Na
   Na683       1.0     0.402780     0.472220     0.333330    Biso  1.000000 Na
   Na684       1.0     0.388890     0.486110     0.666670    Biso  1.000000 Na
   O1363       1.0     0.375000     0.458330     0.239590    Biso  1.000000 O
   O1364       1.0     0.402780     0.472220     0.093750    Biso  1.000000 O
   O1365       1.0     0.402780     0.472220     0.572920    Biso  1.000000 O
   O1366       1.0     0.388890     0.486110     0.427080    Biso  1.000000 O
   O1367       1.0     0.388890     0.486110     0.906250    Biso  1.000000 O
   O1368       1.0     0.375000     0.458330     0.760410    Biso  1.000000 O
   Ni153       1.0     0.388890     0.486110     0.166670    Biso  1.000000 Ni
   Mn449       1.0     0.375000     0.458330     0.500000    Biso  1.000000 Mn
   Mn450       1.0     0.402780     0.472220     0.833330    Biso  1.000000 Mn
   Na685       1.0     0.375000     0.500000     0.000000    Biso  1.000000 Na
   Na686       1.0     0.402780     0.513890     0.333330    Biso  1.000000 Na
   Na687       1.0     0.388890     0.527780     0.666670    Biso  1.000000 Na
   O1369       1.0     0.375000     0.500000     0.239590    Biso  1.000000 O
   O1370       1.0     0.402780     0.513890     0.093750    Biso  1.000000 O
   O1371       1.0     0.402780     0.513890     0.572920    Biso  1.000000 O
   O1372       1.0     0.388890     0.527780     0.427080    Biso  1.000000 O
   O1373       1.0     0.388890     0.527780     0.906250    Biso  1.000000 O
   O1374       1.0     0.375000     0.500000     0.760410    Biso  1.000000 O
   Mn451       1.0     0.388890     0.527780     0.166670    Biso  1.000000 Mn
   Mn452       1.0     0.375000     0.500000     0.500000    Biso  1.000000 Mn
   Mn453       1.0     0.402780     0.513890     0.833330    Biso  1.000000 Mn
   Na688       1.0     0.375000     0.541670     0.000000    Biso  1.000000 Na
   Na689       1.0     0.402780     0.555560     0.333330    Biso  1.000000 Na
   Na690       1.0     0.388890     0.569440     0.666670    Biso  1.000000 Na
   O1375       1.0     0.375000     0.541670     0.239590    Biso  1.000000 O
   O1376       1.0     0.402780     0.555560     0.093750    Biso  1.000000 O
   O1377       1.0     0.402780     0.555560     0.572920    Biso  1.000000 O
   O1378       1.0     0.388890     0.569440     0.427080    Biso  1.000000 O
   O1379       1.0     0.388890     0.569440     0.906250    Biso  1.000000 O
   O1380       1.0     0.375000     0.541670     0.760410    Biso  1.000000 O
   Mn454       1.0     0.388890     0.569440     0.166670    Biso  1.000000 Mn
   Ni154       1.0     0.375000     0.541670     0.500000    Biso  1.000000 Ni
   Mn455       1.0     0.402780     0.555560     0.833330    Biso  1.000000 Mn
   Na691       1.0     0.375000     0.583330     0.000000    Biso  1.000000 Na
   Na692       1.0     0.402780     0.597220     0.333330    Biso  1.000000 Na
   Na693       1.0     0.388890     0.611110     0.666670    Biso  1.000000 Na
   O1381       1.0     0.375000     0.583330     0.239590    Biso  1.000000 O
   O1382       1.0     0.402780     0.597220     0.093750    Biso  1.000000 O
   O1383       1.0     0.402780     0.597220     0.572920    Biso  1.000000 O
   O1384       1.0     0.388890     0.611110     0.427080    Biso  1.000000 O
   O1385       1.0     0.388890     0.611110     0.906250    Biso  1.000000 O
   O1386       1.0     0.375000     0.583330     0.760410    Biso  1.000000 O
   Mn456       1.0     0.388890     0.611110     0.166670    Biso  1.000000 Mn
   Mn457       1.0     0.375000     0.583330     0.500000    Biso  1.000000 Mn
   Mn458       1.0     0.402780     0.597220     0.833330    Biso  1.000000 Mn
   Na694       1.0     0.375000     0.625000     0.000000    Biso  1.000000 Na
   Na695       1.0     0.402780     0.638890     0.333330    Biso  1.000000 Na
   Na696       1.0     0.388890     0.652780     0.666670    Biso  1.000000 Na
   O1387       1.0     0.375000     0.625000     0.239590    Biso  1.000000 O
   O1388       1.0     0.402780     0.638890     0.093750    Biso  1.000000 O
   O1389       1.0     0.402780     0.638890     0.572920    Biso  1.000000 O
   O1390       1.0     0.388890     0.652780     0.427080    Biso  1.000000 O
   O1391       1.0     0.388890     0.652780     0.906250    Biso  1.000000 O
   O1392       1.0     0.375000     0.625000     0.760410    Biso  1.000000 O
   Mn459       1.0     0.388890     0.652780     0.166670    Biso  1.000000 Mn
   Mn460       1.0     0.375000     0.625000     0.500000    Biso  1.000000 Mn
   Ni155       1.0     0.402780     0.638890     0.833330    Biso  1.000000 Ni
   Na697       1.0     0.375000     0.666670     0.000000    Biso  1.000000 Na
   Na698       1.0     0.402780     0.680560     0.333330    Biso  1.000000 Na
   Na699       1.0     0.388890     0.694440     0.666670    Biso  1.000000 Na
   O1393       1.0     0.375000     0.666670     0.239590    Biso  1.000000 O
   O1394       1.0     0.402780     0.680560     0.093750    Biso  1.000000 O
   O1395       1.0     0.402780     0.680560     0.572920    Biso  1.000000 O
   O1396       1.0     0.388890     0.694440     0.427080    Biso  1.000000 O
   O1397       1.0     0.388890     0.694440     0.906250    Biso  1.000000 O
   O1398       1.0     0.375000     0.666670     0.760410    Biso  1.000000 O
   Li82        1.0     0.388890     0.694440     0.166670    Biso  1.000000 Li
   Mn461       1.0     0.375000     0.666670     0.500000    Biso  1.000000 Mn
   Mn462       1.0     0.402780     0.680560     0.833330    Biso  1.000000 Mn
   Na700       1.0     0.375000     0.708330     0.000000    Biso  1.000000 Na
   Na701       1.0     0.402780     0.722220     0.333330    Biso  1.000000 Na
   Na702       1.0     0.388890     0.736110     0.666670    Biso  1.000000 Na
   O1399       1.0     0.375000     0.708330     0.239590    Biso  1.000000 O
   O1400       1.0     0.402780     0.722220     0.093750    Biso  1.000000 O
   O1401       1.0     0.402780     0.722220     0.572920    Biso  1.000000 O
   O1402       1.0     0.388890     0.736110     0.427080    Biso  1.000000 O
   O1403       1.0     0.388890     0.736110     0.906250    Biso  1.000000 O
   O1404       1.0     0.375000     0.708330     0.760410    Biso  1.000000 O
   Mn463       1.0     0.388890     0.736110     0.166670    Biso  1.000000 Mn
   Li83        1.0     0.375000     0.708330     0.500000    Biso  1.000000 Li
   Mn464       1.0     0.402780     0.722220     0.833330    Biso  1.000000 Mn
   Na703       1.0     0.375000     0.750000     0.000000    Biso  1.000000 Na
   Na704       1.0     0.402780     0.763890     0.333330    Biso  1.000000 Na
   Na705       1.0     0.388890     0.777780     0.666670    Biso  1.000000 Na
   O1405       1.0     0.375000     0.750000     0.239590    Biso  1.000000 O
   O1406       1.0     0.402780     0.763890     0.093750    Biso  1.000000 O
   O1407       1.0     0.402780     0.763890     0.572920    Biso  1.000000 O
   O1408       1.0     0.388890     0.777780     0.427080    Biso  1.000000 O
   O1409       1.0     0.388890     0.777780     0.906250    Biso  1.000000 O
   O1410       1.0     0.375000     0.750000     0.760410    Biso  1.000000 O
   Mn465       1.0     0.388890     0.777780     0.166670    Biso  1.000000 Mn
   Mn466       1.0     0.375000     0.750000     0.500000    Biso  1.000000 Mn
   Li84        1.0     0.402780     0.763890     0.833330    Biso  1.000000 Li
   Na706       1.0     0.375000     0.791670     0.000000    Biso  1.000000 Na
   Na707       1.0     0.402780     0.805560     0.333330    Biso  1.000000 Na
   Na708       1.0     0.388890     0.819440     0.666670    Biso  1.000000 Na
   O1411       1.0     0.375000     0.791670     0.239590    Biso  1.000000 O
   O1412       1.0     0.402780     0.805560     0.093750    Biso  1.000000 O
   O1413       1.0     0.402780     0.805560     0.572920    Biso  1.000000 O
   O1414       1.0     0.388890     0.819440     0.427080    Biso  1.000000 O
   O1415       1.0     0.388890     0.819440     0.906250    Biso  1.000000 O
   O1416       1.0     0.375000     0.791670     0.760410    Biso  1.000000 O
   Li85        1.0     0.388890     0.819440     0.166670    Biso  1.000000 Li
   Mn467       1.0     0.375000     0.791670     0.500000    Biso  1.000000 Mn
   Mn468       1.0     0.402780     0.805560     0.833330    Biso  1.000000 Mn
   Na709       1.0     0.375000     0.833330     0.000000    Biso  1.000000 Na
   Na710       1.0     0.402780     0.847220     0.333330    Biso  1.000000 Na
   Na711       1.0     0.388890     0.861110     0.666670    Biso  1.000000 Na
   O1417       1.0     0.375000     0.833330     0.239590    Biso  1.000000 O
   O1418       1.0     0.402780     0.847220     0.093750    Biso  1.000000 O
   O1419       1.0     0.402780     0.847220     0.572920    Biso  1.000000 O
   O1420       1.0     0.388890     0.861110     0.427080    Biso  1.000000 O
   O1421       1.0     0.388890     0.861110     0.906250    Biso  1.000000 O
   O1422       1.0     0.375000     0.833330     0.760410    Biso  1.000000 O
   Mn469       1.0     0.388890     0.861110     0.166670    Biso  1.000000 Mn
   Li86        1.0     0.375000     0.833330     0.500000    Biso  1.000000 Li
   Mn470       1.0     0.402780     0.847220     0.833330    Biso  1.000000 Mn
   Na712       1.0     0.375000     0.875000     0.000000    Biso  1.000000 Na
   Na713       1.0     0.402780     0.888890     0.333330    Biso  1.000000 Na
   Na714       1.0     0.388890     0.902780     0.666670    Biso  1.000000 Na
   O1423       1.0     0.375000     0.875000     0.239590    Biso  1.000000 O
   O1424       1.0     0.402780     0.888890     0.093750    Biso  1.000000 O
   O1425       1.0     0.402780     0.888890     0.572920    Biso  1.000000 O
   O1426       1.0     0.388890     0.902780     0.427080    Biso  1.000000 O
   O1427       1.0     0.388890     0.902780     0.906250    Biso  1.000000 O
   O1428       1.0     0.375000     0.875000     0.760410    Biso  1.000000 O
   Mn471       1.0     0.388890     0.902780     0.166670    Biso  1.000000 Mn
   Mn472       1.0     0.375000     0.875000     0.500000    Biso  1.000000 Mn
   Li87        1.0     0.402780     0.888890     0.833330    Biso  1.000000 Li
   Na715       1.0     0.375000     0.916670     0.000000    Biso  1.000000 Na
   Na716       1.0     0.402780     0.930560     0.333330    Biso  1.000000 Na
   Na717       1.0     0.388890     0.944440     0.666670    Biso  1.000000 Na
   O1429       1.0     0.375000     0.916670     0.239590    Biso  1.000000 O
   O1430       1.0     0.402780     0.930560     0.093750    Biso  1.000000 O
   O1431       1.0     0.402780     0.930560     0.572920    Biso  1.000000 O
   O1432       1.0     0.388890     0.944440     0.427080    Biso  1.000000 O
   O1433       1.0     0.388890     0.944440     0.906250    Biso  1.000000 O
   O1434       1.0     0.375000     0.916670     0.760410    Biso  1.000000 O
   Li88        1.0     0.388890     0.944440     0.166670    Biso  1.000000 Li
   Li89        1.0     0.375000     0.916670     0.500000    Biso  1.000000 Li
   Mn473       1.0     0.402780     0.930560     0.833330    Biso  1.000000 Mn
   Na718       1.0     0.375000     0.958330     0.000000    Biso  1.000000 Na
   Na719       1.0     0.402780     0.972220     0.333330    Biso  1.000000 Na
   Na720       1.0     0.388890     0.986110     0.666670    Biso  1.000000 Na
   O1435       1.0     0.375000     0.958330     0.239590    Biso  1.000000 O
   O1436       1.0     0.402780     0.972220     0.093750    Biso  1.000000 O
   O1437       1.0     0.402780     0.972220     0.572920    Biso  1.000000 O
   O1438       1.0     0.388890     0.986110     0.427080    Biso  1.000000 O
   O1439       1.0     0.388890     0.986110     0.906250    Biso  1.000000 O
   O1440       1.0     0.375000     0.958330     0.760410    Biso  1.000000 O
   Mn474       1.0     0.388890     0.986110     0.166670    Biso  1.000000 Mn
   Mn475       1.0     0.375000     0.958330     0.500000    Biso  1.000000 Mn
   Mn476       1.0     0.402780     0.972220     0.833330    Biso  1.000000 Mn
   Na721       1.0     0.416670     0.000000     0.000000    Biso  1.000000 Na
   Na722       1.0     0.444440     0.013890     0.333330    Biso  1.000000 Na
   Na723       1.0     0.430560     0.027780     0.666670    Biso  1.000000 Na
   O1441       1.0     0.416670     0.000000     0.239590    Biso  1.000000 O
   O1442       1.0     0.444440     0.013890     0.093750    Biso  1.000000 O
   O1443       1.0     0.444440     0.013890     0.572920    Biso  1.000000 O
   O1444       1.0     0.430560     0.027780     0.427080    Biso  1.000000 O
   O1445       1.0     0.430560     0.027780     0.906250    Biso  1.000000 O
   O1446       1.0     0.416670     0.000000     0.760410    Biso  1.000000 O
   Li90        1.0     0.430560     0.027780     0.166670    Biso  1.000000 Li
   Li91        1.0     0.416670     0.000000     0.500000    Biso  1.000000 Li
   Mn477       1.0     0.444440     0.013890     0.833330    Biso  1.000000 Mn
   Na724       1.0     0.416670     0.041670     0.000000    Biso  1.000000 Na
   Na725       1.0     0.444440     0.055560     0.333330    Biso  1.000000 Na
   Na726       1.0     0.430560     0.069440     0.666670    Biso  1.000000 Na
   O1447       1.0     0.416670     0.041670     0.239590    Biso  1.000000 O
   O1448       1.0     0.444440     0.055560     0.093750    Biso  1.000000 O
   O1449       1.0     0.444440     0.055560     0.572920    Biso  1.000000 O
   O1450       1.0     0.430560     0.069440     0.427080    Biso  1.000000 O
   O1451       1.0     0.430560     0.069440     0.906250    Biso  1.000000 O
   O1452       1.0     0.416670     0.041670     0.760410    Biso  1.000000 O
   Mn478       1.0     0.430560     0.069440     0.166670    Biso  1.000000 Mn
   Mn479       1.0     0.416670     0.041670     0.500000    Biso  1.000000 Mn
   Mn480       1.0     0.444440     0.055560     0.833330    Biso  1.000000 Mn
   Na727       1.0     0.416670     0.083330     0.000000    Biso  1.000000 Na
   Na728       1.0     0.444440     0.097220     0.333330    Biso  1.000000 Na
   Na729       1.0     0.430560     0.111110     0.666670    Biso  1.000000 Na
   O1453       1.0     0.416670     0.083330     0.239590    Biso  1.000000 O
   O1454       1.0     0.444440     0.097220     0.093750    Biso  1.000000 O
   O1455       1.0     0.444440     0.097220     0.572920    Biso  1.000000 O
   O1456       1.0     0.430560     0.111110     0.427080    Biso  1.000000 O
   O1457       1.0     0.430560     0.111110     0.906250    Biso  1.000000 O
   O1458       1.0     0.416670     0.083330     0.760410    Biso  1.000000 O
   Mn481       1.0     0.430560     0.111110     0.166670    Biso  1.000000 Mn
   Mn482       1.0     0.416670     0.083330     0.500000    Biso  1.000000 Mn
   Li92        1.0     0.444440     0.097220     0.833330    Biso  1.000000 Li
   Na730       1.0     0.416670     0.125000     0.000000    Biso  1.000000 Na
   Na731       1.0     0.444440     0.138890     0.333330    Biso  1.000000 Na
   Na732       1.0     0.430560     0.152780     0.666670    Biso  1.000000 Na
   O1459       1.0     0.416670     0.125000     0.239590    Biso  1.000000 O
   O1460       1.0     0.444440     0.138890     0.093750    Biso  1.000000 O
   O1461       1.0     0.444440     0.138890     0.572920    Biso  1.000000 O
   O1462       1.0     0.430560     0.152780     0.427080    Biso  1.000000 O
   O1463       1.0     0.430560     0.152780     0.906250    Biso  1.000000 O
   O1464       1.0     0.416670     0.125000     0.760410    Biso  1.000000 O
   Li93        1.0     0.430560     0.152780     0.166670    Biso  1.000000 Li
   Li94        1.0     0.416670     0.125000     0.500000    Biso  1.000000 Li
   Mn483       1.0     0.444440     0.138890     0.833330    Biso  1.000000 Mn
   Na733       1.0     0.416670     0.166670     0.000000    Biso  1.000000 Na
   Na734       1.0     0.444440     0.180560     0.333330    Biso  1.000000 Na
   Na735       1.0     0.430560     0.194440     0.666670    Biso  1.000000 Na
   O1465       1.0     0.416670     0.166670     0.239590    Biso  1.000000 O
   O1466       1.0     0.444440     0.180560     0.093750    Biso  1.000000 O
   O1467       1.0     0.444440     0.180560     0.572920    Biso  1.000000 O
   O1468       1.0     0.430560     0.194440     0.427080    Biso  1.000000 O
   O1469       1.0     0.430560     0.194440     0.906250    Biso  1.000000 O
   O1470       1.0     0.416670     0.166670     0.760410    Biso  1.000000 O
   Mn484       1.0     0.430560     0.194440     0.166670    Biso  1.000000 Mn
   Mn485       1.0     0.416670     0.166670     0.500000    Biso  1.000000 Mn
   Mn486       1.0     0.444440     0.180560     0.833330    Biso  1.000000 Mn
   Na736       1.0     0.416670     0.208330     0.000000    Biso  1.000000 Na
   Na737       1.0     0.444440     0.222220     0.333330    Biso  1.000000 Na
   Na738       1.0     0.430560     0.236110     0.666670    Biso  1.000000 Na
   O1471       1.0     0.416670     0.208330     0.239590    Biso  1.000000 O
   O1472       1.0     0.444440     0.222220     0.093750    Biso  1.000000 O
   O1473       1.0     0.444440     0.222220     0.572920    Biso  1.000000 O
   O1474       1.0     0.430560     0.236110     0.427080    Biso  1.000000 O
   O1475       1.0     0.430560     0.236110     0.906250    Biso  1.000000 O
   O1476       1.0     0.416670     0.208330     0.760410    Biso  1.000000 O
   Mn487       1.0     0.430560     0.236110     0.166670    Biso  1.000000 Mn
   Mn488       1.0     0.416670     0.208330     0.500000    Biso  1.000000 Mn
   Li95        1.0     0.444440     0.222220     0.833330    Biso  1.000000 Li
   Na739       1.0     0.416670     0.250000     0.000000    Biso  1.000000 Na
   Na740       1.0     0.444440     0.263890     0.333330    Biso  1.000000 Na
   Na741       1.0     0.430560     0.277780     0.666670    Biso  1.000000 Na
   O1477       1.0     0.416670     0.250000     0.239590    Biso  1.000000 O
   O1478       1.0     0.444440     0.263890     0.093750    Biso  1.000000 O
   O1479       1.0     0.444440     0.263890     0.572920    Biso  1.000000 O
   O1480       1.0     0.430560     0.277780     0.427080    Biso  1.000000 O
   O1481       1.0     0.430560     0.277780     0.906250    Biso  1.000000 O
   O1482       1.0     0.416670     0.250000     0.760410    Biso  1.000000 O
   Ni156       1.0     0.430560     0.277780     0.166670    Biso  1.000000 Ni
   Ni157       1.0     0.416670     0.250000     0.500000    Biso  1.000000 Ni
   Mn489       1.0     0.444440     0.263890     0.833330    Biso  1.000000 Mn
   Na742       1.0     0.416670     0.291670     0.000000    Biso  1.000000 Na
   Na743       1.0     0.444440     0.305560     0.333330    Biso  1.000000 Na
   Na744       1.0     0.430560     0.319440     0.666670    Biso  1.000000 Na
   O1483       1.0     0.416670     0.291670     0.239590    Biso  1.000000 O
   O1484       1.0     0.444440     0.305560     0.093750    Biso  1.000000 O
   O1485       1.0     0.444440     0.305560     0.572920    Biso  1.000000 O
   O1486       1.0     0.430560     0.319440     0.427080    Biso  1.000000 O
   O1487       1.0     0.430560     0.319440     0.906250    Biso  1.000000 O
   O1488       1.0     0.416670     0.291670     0.760410    Biso  1.000000 O
   Mn490       1.0     0.430560     0.319440     0.166670    Biso  1.000000 Mn
   Mn491       1.0     0.416670     0.291670     0.500000    Biso  1.000000 Mn
   Mn492       1.0     0.444440     0.305560     0.833330    Biso  1.000000 Mn
   Na745       1.0     0.416670     0.333330     0.000000    Biso  1.000000 Na
   Na746       1.0     0.444440     0.347220     0.333330    Biso  1.000000 Na
   Na747       1.0     0.430560     0.361110     0.666670    Biso  1.000000 Na
   O1489       1.0     0.416670     0.333330     0.239590    Biso  1.000000 O
   O1490       1.0     0.444440     0.347220     0.093750    Biso  1.000000 O
   O1491       1.0     0.444440     0.347220     0.572920    Biso  1.000000 O
   O1492       1.0     0.430560     0.361110     0.427080    Biso  1.000000 O
   O1493       1.0     0.430560     0.361110     0.906250    Biso  1.000000 O
   O1494       1.0     0.416670     0.333330     0.760410    Biso  1.000000 O
   Mn493       1.0     0.430560     0.361110     0.166670    Biso  1.000000 Mn
   Mn494       1.0     0.416670     0.333330     0.500000    Biso  1.000000 Mn
   Ni158       1.0     0.444440     0.347220     0.833330    Biso  1.000000 Ni
   Na748       1.0     0.416670     0.375000     0.000000    Biso  1.000000 Na
   Na749       1.0     0.444440     0.388890     0.333330    Biso  1.000000 Na
   Na750       1.0     0.430560     0.402780     0.666670    Biso  1.000000 Na
   O1495       1.0     0.416670     0.375000     0.239590    Biso  1.000000 O
   O1496       1.0     0.444440     0.388890     0.093750    Biso  1.000000 O
   O1497       1.0     0.444440     0.388890     0.572920    Biso  1.000000 O
   O1498       1.0     0.430560     0.402780     0.427080    Biso  1.000000 O
   O1499       1.0     0.430560     0.402780     0.906250    Biso  1.000000 O
   O1500       1.0     0.416670     0.375000     0.760410    Biso  1.000000 O
   Ni159       1.0     0.430560     0.402780     0.166670    Biso  1.000000 Ni
   Mn495       1.0     0.416670     0.375000     0.500000    Biso  1.000000 Mn
   Mn496       1.0     0.444440     0.388890     0.833330    Biso  1.000000 Mn
   Na751       1.0     0.416670     0.416670     0.000000    Biso  1.000000 Na
   Na752       1.0     0.444440     0.430560     0.333330    Biso  1.000000 Na
   Na753       1.0     0.430560     0.444440     0.666670    Biso  1.000000 Na
   O1501       1.0     0.416670     0.416670     0.239590    Biso  1.000000 O
   O1502       1.0     0.444440     0.430560     0.093750    Biso  1.000000 O
   O1503       1.0     0.444440     0.430560     0.572920    Biso  1.000000 O
   O1504       1.0     0.430560     0.444440     0.427080    Biso  1.000000 O
   O1505       1.0     0.430560     0.444440     0.906250    Biso  1.000000 O
   O1506       1.0     0.416670     0.416670     0.760410    Biso  1.000000 O
   Ni160       1.0     0.430560     0.444440     0.166670    Biso  1.000000 Ni
   Mn497       1.0     0.416670     0.416670     0.500000    Biso  1.000000 Mn
   Ni161       1.0     0.444440     0.430560     0.833330    Biso  1.000000 Ni
   Na754       1.0     0.416670     0.458330     0.000000    Biso  1.000000 Na
   Na755       1.0     0.444440     0.472220     0.333330    Biso  1.000000 Na
   Na756       1.0     0.430560     0.486110     0.666670    Biso  1.000000 Na
   O1507       1.0     0.416670     0.458330     0.239590    Biso  1.000000 O
   O1508       1.0     0.444440     0.472220     0.093750    Biso  1.000000 O
   O1509       1.0     0.444440     0.472220     0.572920    Biso  1.000000 O
   O1510       1.0     0.430560     0.486110     0.427080    Biso  1.000000 O
   O1511       1.0     0.430560     0.486110     0.906250    Biso  1.000000 O
   O1512       1.0     0.416670     0.458330     0.760410    Biso  1.000000 O
   Ni162       1.0     0.430560     0.486110     0.166670    Biso  1.000000 Ni
   Mn498       1.0     0.416670     0.458330     0.500000    Biso  1.000000 Mn
   Mn499       1.0     0.444440     0.472220     0.833330    Biso  1.000000 Mn
   Na757       1.0     0.416670     0.500000     0.000000    Biso  1.000000 Na
   Na758       1.0     0.444440     0.513890     0.333330    Biso  1.000000 Na
   Na759       1.0     0.430560     0.527780     0.666670    Biso  1.000000 Na
   O1513       1.0     0.416670     0.500000     0.239590    Biso  1.000000 O
   O1514       1.0     0.444440     0.513890     0.093750    Biso  1.000000 O
   O1515       1.0     0.444440     0.513890     0.572920    Biso  1.000000 O
   O1516       1.0     0.430560     0.527780     0.427080    Biso  1.000000 O
   O1517       1.0     0.430560     0.527780     0.906250    Biso  1.000000 O
   O1518       1.0     0.416670     0.500000     0.760410    Biso  1.000000 O
   Mn500       1.0     0.430560     0.527780     0.166670    Biso  1.000000 Mn
   Ni163       1.0     0.416670     0.500000     0.500000    Biso  1.000000 Ni
   Ni164       1.0     0.444440     0.513890     0.833330    Biso  1.000000 Ni
   Na760       1.0     0.416670     0.541670     0.000000    Biso  1.000000 Na
   Na761       1.0     0.444440     0.555560     0.333330    Biso  1.000000 Na
   Na762       1.0     0.430560     0.569440     0.666670    Biso  1.000000 Na
   O1519       1.0     0.416670     0.541670     0.239590    Biso  1.000000 O
   O1520       1.0     0.444440     0.555560     0.093750    Biso  1.000000 O
   O1521       1.0     0.444440     0.555560     0.572920    Biso  1.000000 O
   O1522       1.0     0.430560     0.569440     0.427080    Biso  1.000000 O
   O1523       1.0     0.430560     0.569440     0.906250    Biso  1.000000 O
   O1524       1.0     0.416670     0.541670     0.760410    Biso  1.000000 O
   Mn501       1.0     0.430560     0.569440     0.166670    Biso  1.000000 Mn
   Mn502       1.0     0.416670     0.541670     0.500000    Biso  1.000000 Mn
   Mn503       1.0     0.444440     0.555560     0.833330    Biso  1.000000 Mn
   Na763       1.0     0.416670     0.583330     0.000000    Biso  1.000000 Na
   Na764       1.0     0.444440     0.597220     0.333330    Biso  1.000000 Na
   Na765       1.0     0.430560     0.611110     0.666670    Biso  1.000000 Na
   O1525       1.0     0.416670     0.583330     0.239590    Biso  1.000000 O
   O1526       1.0     0.444440     0.597220     0.093750    Biso  1.000000 O
   O1527       1.0     0.444440     0.597220     0.572920    Biso  1.000000 O
   O1528       1.0     0.430560     0.611110     0.427080    Biso  1.000000 O
   O1529       1.0     0.430560     0.611110     0.906250    Biso  1.000000 O
   O1530       1.0     0.416670     0.583330     0.760410    Biso  1.000000 O
   Ni165       1.0     0.430560     0.611110     0.166670    Biso  1.000000 Ni
   Mn504       1.0     0.416670     0.583330     0.500000    Biso  1.000000 Mn
   Ni166       1.0     0.444440     0.597220     0.833330    Biso  1.000000 Ni
   Na766       1.0     0.416670     0.625000     0.000000    Biso  1.000000 Na
   Na767       1.0     0.444440     0.638890     0.333330    Biso  1.000000 Na
   Na768       1.0     0.430560     0.652780     0.666670    Biso  1.000000 Na
   O1531       1.0     0.416670     0.625000     0.239590    Biso  1.000000 O
   O1532       1.0     0.444440     0.638890     0.093750    Biso  1.000000 O
   O1533       1.0     0.444440     0.638890     0.572920    Biso  1.000000 O
   O1534       1.0     0.430560     0.652780     0.427080    Biso  1.000000 O
   O1535       1.0     0.430560     0.652780     0.906250    Biso  1.000000 O
   O1536       1.0     0.416670     0.625000     0.760410    Biso  1.000000 O
   Mn505       1.0     0.430560     0.652780     0.166670    Biso  1.000000 Mn
   Mn506       1.0     0.416670     0.625000     0.500000    Biso  1.000000 Mn
   Mn507       1.0     0.444440     0.638890     0.833330    Biso  1.000000 Mn
   Na769       1.0     0.416670     0.666670     0.000000    Biso  1.000000 Na
   Na770       1.0     0.444440     0.680560     0.333330    Biso  1.000000 Na
   Na771       1.0     0.430560     0.694440     0.666670    Biso  1.000000 Na
   O1537       1.0     0.416670     0.666670     0.239590    Biso  1.000000 O
   O1538       1.0     0.444440     0.680560     0.093750    Biso  1.000000 O
   O1539       1.0     0.444440     0.680560     0.572920    Biso  1.000000 O
   O1540       1.0     0.430560     0.694440     0.427080    Biso  1.000000 O
   O1541       1.0     0.430560     0.694440     0.906250    Biso  1.000000 O
   O1542       1.0     0.416670     0.666670     0.760410    Biso  1.000000 O
   Mn508       1.0     0.430560     0.694440     0.166670    Biso  1.000000 Mn
   Ni167       1.0     0.416670     0.666670     0.500000    Biso  1.000000 Ni
   Mn509       1.0     0.444440     0.680560     0.833330    Biso  1.000000 Mn
   Na772       1.0     0.416670     0.708330     0.000000    Biso  1.000000 Na
   Na773       1.0     0.444440     0.722220     0.333330    Biso  1.000000 Na
   Na774       1.0     0.430560     0.736110     0.666670    Biso  1.000000 Na
   O1543       1.0     0.416670     0.708330     0.239590    Biso  1.000000 O
   O1544       1.0     0.444440     0.722220     0.093750    Biso  1.000000 O
   O1545       1.0     0.444440     0.722220     0.572920    Biso  1.000000 O
   O1546       1.0     0.430560     0.736110     0.427080    Biso  1.000000 O
   O1547       1.0     0.430560     0.736110     0.906250    Biso  1.000000 O
   O1548       1.0     0.416670     0.708330     0.760410    Biso  1.000000 O
   Mn510       1.0     0.430560     0.736110     0.166670    Biso  1.000000 Mn
   Mn511       1.0     0.416670     0.708330     0.500000    Biso  1.000000 Mn
   Li96        1.0     0.444440     0.722220     0.833330    Biso  1.000000 Li
   Na775       1.0     0.416670     0.750000     0.000000    Biso  1.000000 Na
   Na776       1.0     0.444440     0.763890     0.333330    Biso  1.000000 Na
   Na777       1.0     0.430560     0.777780     0.666670    Biso  1.000000 Na
   O1549       1.0     0.416670     0.750000     0.239590    Biso  1.000000 O
   O1550       1.0     0.444440     0.763890     0.093750    Biso  1.000000 O
   O1551       1.0     0.444440     0.763890     0.572920    Biso  1.000000 O
   O1552       1.0     0.430560     0.777780     0.427080    Biso  1.000000 O
   O1553       1.0     0.430560     0.777780     0.906250    Biso  1.000000 O
   O1554       1.0     0.416670     0.750000     0.760410    Biso  1.000000 O
   Li97        1.0     0.430560     0.777780     0.166670    Biso  1.000000 Li
   Mn512       1.0     0.416670     0.750000     0.500000    Biso  1.000000 Mn
   Mn513       1.0     0.444440     0.763890     0.833330    Biso  1.000000 Mn
   Na778       1.0     0.416670     0.791670     0.000000    Biso  1.000000 Na
   Na779       1.0     0.444440     0.805560     0.333330    Biso  1.000000 Na
   Na780       1.0     0.430560     0.819440     0.666670    Biso  1.000000 Na
   O1555       1.0     0.416670     0.791670     0.239590    Biso  1.000000 O
   O1556       1.0     0.444440     0.805560     0.093750    Biso  1.000000 O
   O1557       1.0     0.444440     0.805560     0.572920    Biso  1.000000 O
   O1558       1.0     0.430560     0.819440     0.427080    Biso  1.000000 O
   O1559       1.0     0.430560     0.819440     0.906250    Biso  1.000000 O
   O1560       1.0     0.416670     0.791670     0.760410    Biso  1.000000 O
   Mn514       1.0     0.430560     0.819440     0.166670    Biso  1.000000 Mn
   Li98        1.0     0.416670     0.791670     0.500000    Biso  1.000000 Li
   Mn515       1.0     0.444440     0.805560     0.833330    Biso  1.000000 Mn
   Na781       1.0     0.416670     0.833330     0.000000    Biso  1.000000 Na
   Na782       1.0     0.444440     0.847220     0.333330    Biso  1.000000 Na
   Na783       1.0     0.430560     0.861110     0.666670    Biso  1.000000 Na
   O1561       1.0     0.416670     0.833330     0.239590    Biso  1.000000 O
   O1562       1.0     0.444440     0.847220     0.093750    Biso  1.000000 O
   O1563       1.0     0.444440     0.847220     0.572920    Biso  1.000000 O
   O1564       1.0     0.430560     0.861110     0.427080    Biso  1.000000 O
   O1565       1.0     0.430560     0.861110     0.906250    Biso  1.000000 O
   O1566       1.0     0.416670     0.833330     0.760410    Biso  1.000000 O
   Mn516       1.0     0.430560     0.861110     0.166670    Biso  1.000000 Mn
   Mn517       1.0     0.416670     0.833330     0.500000    Biso  1.000000 Mn
   Li99        1.0     0.444440     0.847220     0.833330    Biso  1.000000 Li
   Na784       1.0     0.416670     0.875000     0.000000    Biso  1.000000 Na
   Na785       1.0     0.444440     0.888890     0.333330    Biso  1.000000 Na
   Na786       1.0     0.430560     0.902780     0.666670    Biso  1.000000 Na
   O1567       1.0     0.416670     0.875000     0.239590    Biso  1.000000 O
   O1568       1.0     0.444440     0.888890     0.093750    Biso  1.000000 O
   O1569       1.0     0.444440     0.888890     0.572920    Biso  1.000000 O
   O1570       1.0     0.430560     0.902780     0.427080    Biso  1.000000 O
   O1571       1.0     0.430560     0.902780     0.906250    Biso  1.000000 O
   O1572       1.0     0.416670     0.875000     0.760410    Biso  1.000000 O
   Li100       1.0     0.430560     0.902780     0.166670    Biso  1.000000 Li
   Ni168       1.0     0.416670     0.875000     0.500000    Biso  1.000000 Ni
   Mn518       1.0     0.444440     0.888890     0.833330    Biso  1.000000 Mn
   Na787       1.0     0.416670     0.916670     0.000000    Biso  1.000000 Na
   Na788       1.0     0.444440     0.930560     0.333330    Biso  1.000000 Na
   Na789       1.0     0.430560     0.944440     0.666670    Biso  1.000000 Na
   O1573       1.0     0.416670     0.916670     0.239590    Biso  1.000000 O
   O1574       1.0     0.444440     0.930560     0.093750    Biso  1.000000 O
   O1575       1.0     0.444440     0.930560     0.572920    Biso  1.000000 O
   O1576       1.0     0.430560     0.944440     0.427080    Biso  1.000000 O
   O1577       1.0     0.430560     0.944440     0.906250    Biso  1.000000 O
   O1578       1.0     0.416670     0.916670     0.760410    Biso  1.000000 O
   Mn519       1.0     0.430560     0.944440     0.166670    Biso  1.000000 Mn
   Mn520       1.0     0.416670     0.916670     0.500000    Biso  1.000000 Mn
   Mn521       1.0     0.444440     0.930560     0.833330    Biso  1.000000 Mn
   Na790       1.0     0.416670     0.958330     0.000000    Biso  1.000000 Na
   Na791       1.0     0.444440     0.972220     0.333330    Biso  1.000000 Na
   Na792       1.0     0.430560     0.986110     0.666670    Biso  1.000000 Na
   O1579       1.0     0.416670     0.958330     0.239590    Biso  1.000000 O
   O1580       1.0     0.444440     0.972220     0.093750    Biso  1.000000 O
   O1581       1.0     0.444440     0.972220     0.572920    Biso  1.000000 O
   O1582       1.0     0.430560     0.986110     0.427080    Biso  1.000000 O
   O1583       1.0     0.430560     0.986110     0.906250    Biso  1.000000 O
   O1584       1.0     0.416670     0.958330     0.760410    Biso  1.000000 O
   Mn522       1.0     0.430560     0.986110     0.166670    Biso  1.000000 Mn
   Mn523       1.0     0.416670     0.958330     0.500000    Biso  1.000000 Mn
   Li101       1.0     0.444440     0.972220     0.833330    Biso  1.000000 Li
   Na793       1.0     0.458330     0.000000     0.000000    Biso  1.000000 Na
   Na794       1.0     0.486110     0.013890     0.333330    Biso  1.000000 Na
   Na795       1.0     0.472220     0.027780     0.666670    Biso  1.000000 Na
   O1585       1.0     0.458330     0.000000     0.239590    Biso  1.000000 O
   O1586       1.0     0.486110     0.013890     0.093750    Biso  1.000000 O
   O1587       1.0     0.486110     0.013890     0.572920    Biso  1.000000 O
   O1588       1.0     0.472220     0.027780     0.427080    Biso  1.000000 O
   O1589       1.0     0.472220     0.027780     0.906250    Biso  1.000000 O
   O1590       1.0     0.458330     0.000000     0.760410    Biso  1.000000 O
   Mn524       1.0     0.472220     0.027780     0.166670    Biso  1.000000 Mn
   Mn525       1.0     0.458330     0.000000     0.500000    Biso  1.000000 Mn
   Mn526       1.0     0.486110     0.013890     0.833330    Biso  1.000000 Mn
   Na796       1.0     0.458330     0.041670     0.000000    Biso  1.000000 Na
   Na797       1.0     0.486110     0.055560     0.333330    Biso  1.000000 Na
   Na798       1.0     0.472220     0.069440     0.666670    Biso  1.000000 Na
   O1591       1.0     0.458330     0.041670     0.239590    Biso  1.000000 O
   O1592       1.0     0.486110     0.055560     0.093750    Biso  1.000000 O
   O1593       1.0     0.486110     0.055560     0.572920    Biso  1.000000 O
   O1594       1.0     0.472220     0.069440     0.427080    Biso  1.000000 O
   O1595       1.0     0.472220     0.069440     0.906250    Biso  1.000000 O
   O1596       1.0     0.458330     0.041670     0.760410    Biso  1.000000 O
   Mn527       1.0     0.472220     0.069440     0.166670    Biso  1.000000 Mn
   Mn528       1.0     0.458330     0.041670     0.500000    Biso  1.000000 Mn
   Li102       1.0     0.486110     0.055560     0.833330    Biso  1.000000 Li
   Na799       1.0     0.458330     0.083330     0.000000    Biso  1.000000 Na
   Na800       1.0     0.486110     0.097220     0.333330    Biso  1.000000 Na
   Na801       1.0     0.472220     0.111110     0.666670    Biso  1.000000 Na
   O1597       1.0     0.458330     0.083330     0.239590    Biso  1.000000 O
   O1598       1.0     0.486110     0.097220     0.093750    Biso  1.000000 O
   O1599       1.0     0.486110     0.097220     0.572920    Biso  1.000000 O
   O1600       1.0     0.472220     0.111110     0.427080    Biso  1.000000 O
   O1601       1.0     0.472220     0.111110     0.906250    Biso  1.000000 O
   O1602       1.0     0.458330     0.083330     0.760410    Biso  1.000000 O
   Li103       1.0     0.472220     0.111110     0.166670    Biso  1.000000 Li
   Li104       1.0     0.458330     0.083330     0.500000    Biso  1.000000 Li
   Mn529       1.0     0.486110     0.097220     0.833330    Biso  1.000000 Mn
   Na802       1.0     0.458330     0.125000     0.000000    Biso  1.000000 Na
   Na803       1.0     0.486110     0.138890     0.333330    Biso  1.000000 Na
   Na804       1.0     0.472220     0.152780     0.666670    Biso  1.000000 Na
   O1603       1.0     0.458330     0.125000     0.239590    Biso  1.000000 O
   O1604       1.0     0.486110     0.138890     0.093750    Biso  1.000000 O
   O1605       1.0     0.486110     0.138890     0.572920    Biso  1.000000 O
   O1606       1.0     0.472220     0.152780     0.427080    Biso  1.000000 O
   O1607       1.0     0.472220     0.152780     0.906250    Biso  1.000000 O
   O1608       1.0     0.458330     0.125000     0.760410    Biso  1.000000 O
   Mn530       1.0     0.472220     0.152780     0.166670    Biso  1.000000 Mn
   Mn531       1.0     0.458330     0.125000     0.500000    Biso  1.000000 Mn
   Mn532       1.0     0.486110     0.138890     0.833330    Biso  1.000000 Mn
   Na805       1.0     0.458330     0.166670     0.000000    Biso  1.000000 Na
   Na806       1.0     0.486110     0.180560     0.333330    Biso  1.000000 Na
   Na807       1.0     0.472220     0.194440     0.666670    Biso  1.000000 Na
   O1609       1.0     0.458330     0.166670     0.239590    Biso  1.000000 O
   O1610       1.0     0.486110     0.180560     0.093750    Biso  1.000000 O
   O1611       1.0     0.486110     0.180560     0.572920    Biso  1.000000 O
   O1612       1.0     0.472220     0.194440     0.427080    Biso  1.000000 O
   O1613       1.0     0.472220     0.194440     0.906250    Biso  1.000000 O
   O1614       1.0     0.458330     0.166670     0.760410    Biso  1.000000 O
   Mn533       1.0     0.472220     0.194440     0.166670    Biso  1.000000 Mn
   Mn534       1.0     0.458330     0.166670     0.500000    Biso  1.000000 Mn
   Li105       1.0     0.486110     0.180560     0.833330    Biso  1.000000 Li
   Na808       1.0     0.458330     0.208330     0.000000    Biso  1.000000 Na
   Na809       1.0     0.486110     0.222220     0.333330    Biso  1.000000 Na
   Na810       1.0     0.472220     0.236110     0.666670    Biso  1.000000 Na
   O1615       1.0     0.458330     0.208330     0.239590    Biso  1.000000 O
   O1616       1.0     0.486110     0.222220     0.093750    Biso  1.000000 O
   O1617       1.0     0.486110     0.222220     0.572920    Biso  1.000000 O
   O1618       1.0     0.472220     0.236110     0.427080    Biso  1.000000 O
   O1619       1.0     0.472220     0.236110     0.906250    Biso  1.000000 O
   O1620       1.0     0.458330     0.208330     0.760410    Biso  1.000000 O
   Li106       1.0     0.472220     0.236110     0.166670    Biso  1.000000 Li
   Li107       1.0     0.458330     0.208330     0.500000    Biso  1.000000 Li
   Mn535       1.0     0.486110     0.222220     0.833330    Biso  1.000000 Mn
   Na811       1.0     0.458330     0.250000     0.000000    Biso  1.000000 Na
   Na812       1.0     0.486110     0.263890     0.333330    Biso  1.000000 Na
   Na813       1.0     0.472220     0.277780     0.666670    Biso  1.000000 Na
   O1621       1.0     0.458330     0.250000     0.239590    Biso  1.000000 O
   O1622       1.0     0.486110     0.263890     0.093750    Biso  1.000000 O
   O1623       1.0     0.486110     0.263890     0.572920    Biso  1.000000 O
   O1624       1.0     0.472220     0.277780     0.427080    Biso  1.000000 O
   O1625       1.0     0.472220     0.277780     0.906250    Biso  1.000000 O
   O1626       1.0     0.458330     0.250000     0.760410    Biso  1.000000 O
   Mn536       1.0     0.472220     0.277780     0.166670    Biso  1.000000 Mn
   Mn537       1.0     0.458330     0.250000     0.500000    Biso  1.000000 Mn
   Mn538       1.0     0.486110     0.263890     0.833330    Biso  1.000000 Mn
   Na814       1.0     0.458330     0.291670     0.000000    Biso  1.000000 Na
   Na815       1.0     0.486110     0.305560     0.333330    Biso  1.000000 Na
   Na816       1.0     0.472220     0.319440     0.666670    Biso  1.000000 Na
   O1627       1.0     0.458330     0.291670     0.239590    Biso  1.000000 O
   O1628       1.0     0.486110     0.305560     0.093750    Biso  1.000000 O
   O1629       1.0     0.486110     0.305560     0.572920    Biso  1.000000 O
   O1630       1.0     0.472220     0.319440     0.427080    Biso  1.000000 O
   O1631       1.0     0.472220     0.319440     0.906250    Biso  1.000000 O
   O1632       1.0     0.458330     0.291670     0.760410    Biso  1.000000 O
   Mn539       1.0     0.472220     0.319440     0.166670    Biso  1.000000 Mn
   Mn540       1.0     0.458330     0.291670     0.500000    Biso  1.000000 Mn
   Li108       1.0     0.486110     0.305560     0.833330    Biso  1.000000 Li
   Na817       1.0     0.458330     0.333330     0.000000    Biso  1.000000 Na
   Na818       1.0     0.486110     0.347220     0.333330    Biso  1.000000 Na
   Na819       1.0     0.472220     0.361110     0.666670    Biso  1.000000 Na
   O1633       1.0     0.458330     0.333330     0.239590    Biso  1.000000 O
   O1634       1.0     0.486110     0.347220     0.093750    Biso  1.000000 O
   O1635       1.0     0.486110     0.347220     0.572920    Biso  1.000000 O
   O1636       1.0     0.472220     0.361110     0.427080    Biso  1.000000 O
   O1637       1.0     0.472220     0.361110     0.906250    Biso  1.000000 O
   O1638       1.0     0.458330     0.333330     0.760410    Biso  1.000000 O
   Ni169       1.0     0.472220     0.361110     0.166670    Biso  1.000000 Ni
   Ni170       1.0     0.458330     0.333330     0.500000    Biso  1.000000 Ni
   Mn541       1.0     0.486110     0.347220     0.833330    Biso  1.000000 Mn
   Na820       1.0     0.458330     0.375000     0.000000    Biso  1.000000 Na
   Na821       1.0     0.486110     0.388890     0.333330    Biso  1.000000 Na
   Na822       1.0     0.472220     0.402780     0.666670    Biso  1.000000 Na
   O1639       1.0     0.458330     0.375000     0.239590    Biso  1.000000 O
   O1640       1.0     0.486110     0.388890     0.093750    Biso  1.000000 O
   O1641       1.0     0.486110     0.388890     0.572920    Biso  1.000000 O
   O1642       1.0     0.472220     0.402780     0.427080    Biso  1.000000 O
   O1643       1.0     0.472220     0.402780     0.906250    Biso  1.000000 O
   O1644       1.0     0.458330     0.375000     0.760410    Biso  1.000000 O
   Mn542       1.0     0.472220     0.402780     0.166670    Biso  1.000000 Mn
   Mn543       1.0     0.458330     0.375000     0.500000    Biso  1.000000 Mn
   Mn544       1.0     0.486110     0.388890     0.833330    Biso  1.000000 Mn
   Na823       1.0     0.458330     0.416670     0.000000    Biso  1.000000 Na
   Na824       1.0     0.486110     0.430560     0.333330    Biso  1.000000 Na
   Na825       1.0     0.472220     0.444440     0.666670    Biso  1.000000 Na
   O1645       1.0     0.458330     0.416670     0.239590    Biso  1.000000 O
   O1646       1.0     0.486110     0.430560     0.093750    Biso  1.000000 O
   O1647       1.0     0.486110     0.430560     0.572920    Biso  1.000000 O
   O1648       1.0     0.472220     0.444440     0.427080    Biso  1.000000 O
   O1649       1.0     0.472220     0.444440     0.906250    Biso  1.000000 O
   O1650       1.0     0.458330     0.416670     0.760410    Biso  1.000000 O
   Mn545       1.0     0.472220     0.444440     0.166670    Biso  1.000000 Mn
   Ni171       1.0     0.458330     0.416670     0.500000    Biso  1.000000 Ni
   Mn546       1.0     0.486110     0.430560     0.833330    Biso  1.000000 Mn
   Na826       1.0     0.458330     0.458330     0.000000    Biso  1.000000 Na
   Na827       1.0     0.486110     0.472220     0.333330    Biso  1.000000 Na
   Na828       1.0     0.472220     0.486110     0.666670    Biso  1.000000 Na
   O1651       1.0     0.458330     0.458330     0.239590    Biso  1.000000 O
   O1652       1.0     0.486110     0.472220     0.093750    Biso  1.000000 O
   O1653       1.0     0.486110     0.472220     0.572920    Biso  1.000000 O
   O1654       1.0     0.472220     0.486110     0.427080    Biso  1.000000 O
   O1655       1.0     0.472220     0.486110     0.906250    Biso  1.000000 O
   O1656       1.0     0.458330     0.458330     0.760410    Biso  1.000000 O
   Mn547       1.0     0.472220     0.486110     0.166670    Biso  1.000000 Mn
   Mn548       1.0     0.458330     0.458330     0.500000    Biso  1.000000 Mn
   Mn549       1.0     0.486110     0.472220     0.833330    Biso  1.000000 Mn
   Na829       1.0     0.458330     0.500000     0.000000    Biso  1.000000 Na
   Na830       1.0     0.486110     0.513890     0.333330    Biso  1.000000 Na
   Na831       1.0     0.472220     0.527780     0.666670    Biso  1.000000 Na
   O1657       1.0     0.458330     0.500000     0.239590    Biso  1.000000 O
   O1658       1.0     0.486110     0.513890     0.093750    Biso  1.000000 O
   O1659       1.0     0.486110     0.513890     0.572920    Biso  1.000000 O
   O1660       1.0     0.472220     0.527780     0.427080    Biso  1.000000 O
   O1661       1.0     0.472220     0.527780     0.906250    Biso  1.000000 O
   O1662       1.0     0.458330     0.500000     0.760410    Biso  1.000000 O
   Mn550       1.0     0.472220     0.527780     0.166670    Biso  1.000000 Mn
   Mn551       1.0     0.458330     0.500000     0.500000    Biso  1.000000 Mn
   Mn552       1.0     0.486110     0.513890     0.833330    Biso  1.000000 Mn
   Na832       1.0     0.458330     0.541670     0.000000    Biso  1.000000 Na
   Na833       1.0     0.486110     0.555560     0.333330    Biso  1.000000 Na
   Na834       1.0     0.472220     0.569440     0.666670    Biso  1.000000 Na
   O1663       1.0     0.458330     0.541670     0.239590    Biso  1.000000 O
   O1664       1.0     0.486110     0.555560     0.093750    Biso  1.000000 O
   O1665       1.0     0.486110     0.555560     0.572920    Biso  1.000000 O
   O1666       1.0     0.472220     0.569440     0.427080    Biso  1.000000 O
   O1667       1.0     0.472220     0.569440     0.906250    Biso  1.000000 O
   O1668       1.0     0.458330     0.541670     0.760410    Biso  1.000000 O
   Ni172       1.0     0.472220     0.569440     0.166670    Biso  1.000000 Ni
   Mn553       1.0     0.458330     0.541670     0.500000    Biso  1.000000 Mn
   Mn554       1.0     0.486110     0.555560     0.833330    Biso  1.000000 Mn
   Na835       1.0     0.458330     0.583330     0.000000    Biso  1.000000 Na
   Na836       1.0     0.486110     0.597220     0.333330    Biso  1.000000 Na
   Na837       1.0     0.472220     0.611110     0.666670    Biso  1.000000 Na
   O1669       1.0     0.458330     0.583330     0.239590    Biso  1.000000 O
   O1670       1.0     0.486110     0.597220     0.093750    Biso  1.000000 O
   O1671       1.0     0.486110     0.597220     0.572920    Biso  1.000000 O
   O1672       1.0     0.472220     0.611110     0.427080    Biso  1.000000 O
   O1673       1.0     0.472220     0.611110     0.906250    Biso  1.000000 O
   O1674       1.0     0.458330     0.583330     0.760410    Biso  1.000000 O
   Mn555       1.0     0.472220     0.611110     0.166670    Biso  1.000000 Mn
   Ni173       1.0     0.458330     0.583330     0.500000    Biso  1.000000 Ni
   Ni174       1.0     0.486110     0.597220     0.833330    Biso  1.000000 Ni
   Na838       1.0     0.458330     0.625000     0.000000    Biso  1.000000 Na
   Na839       1.0     0.486110     0.638890     0.333330    Biso  1.000000 Na
   Na840       1.0     0.472220     0.652780     0.666670    Biso  1.000000 Na
   O1675       1.0     0.458330     0.625000     0.239590    Biso  1.000000 O
   O1676       1.0     0.486110     0.638890     0.093750    Biso  1.000000 O
   O1677       1.0     0.486110     0.638890     0.572920    Biso  1.000000 O
   O1678       1.0     0.472220     0.652780     0.427080    Biso  1.000000 O
   O1679       1.0     0.472220     0.652780     0.906250    Biso  1.000000 O
   O1680       1.0     0.458330     0.625000     0.760410    Biso  1.000000 O
   Mn556       1.0     0.472220     0.652780     0.166670    Biso  1.000000 Mn
   Ni175       1.0     0.458330     0.625000     0.500000    Biso  1.000000 Ni
   Mn557       1.0     0.486110     0.638890     0.833330    Biso  1.000000 Mn
   Na841       1.0     0.458330     0.666670     0.000000    Biso  1.000000 Na
   Na842       1.0     0.486110     0.680560     0.333330    Biso  1.000000 Na
   Na843       1.0     0.472220     0.694440     0.666670    Biso  1.000000 Na
   O1681       1.0     0.458330     0.666670     0.239590    Biso  1.000000 O
   O1682       1.0     0.486110     0.680560     0.093750    Biso  1.000000 O
   O1683       1.0     0.486110     0.680560     0.572920    Biso  1.000000 O
   O1684       1.0     0.472220     0.694440     0.427080    Biso  1.000000 O
   O1685       1.0     0.472220     0.694440     0.906250    Biso  1.000000 O
   O1686       1.0     0.458330     0.666670     0.760410    Biso  1.000000 O
   Ni176       1.0     0.472220     0.694440     0.166670    Biso  1.000000 Ni
   Mn558       1.0     0.458330     0.666670     0.500000    Biso  1.000000 Mn
   Ni177       1.0     0.486110     0.680560     0.833330    Biso  1.000000 Ni
   Na844       1.0     0.458330     0.708330     0.000000    Biso  1.000000 Na
   Na845       1.0     0.486110     0.722220     0.333330    Biso  1.000000 Na
   Na846       1.0     0.472220     0.736110     0.666670    Biso  1.000000 Na
   O1687       1.0     0.458330     0.708330     0.239590    Biso  1.000000 O
   O1688       1.0     0.486110     0.722220     0.093750    Biso  1.000000 O
   O1689       1.0     0.486110     0.722220     0.572920    Biso  1.000000 O
   O1690       1.0     0.472220     0.736110     0.427080    Biso  1.000000 O
   O1691       1.0     0.472220     0.736110     0.906250    Biso  1.000000 O
   O1692       1.0     0.458330     0.708330     0.760410    Biso  1.000000 O
   Ni178       1.0     0.472220     0.736110     0.166670    Biso  1.000000 Ni
   Mn559       1.0     0.458330     0.708330     0.500000    Biso  1.000000 Mn
   Mn560       1.0     0.486110     0.722220     0.833330    Biso  1.000000 Mn
   Na847       1.0     0.458330     0.750000     0.000000    Biso  1.000000 Na
   Na848       1.0     0.486110     0.763890     0.333330    Biso  1.000000 Na
   Na849       1.0     0.472220     0.777780     0.666670    Biso  1.000000 Na
   O1693       1.0     0.458330     0.750000     0.239590    Biso  1.000000 O
   O1694       1.0     0.486110     0.763890     0.093750    Biso  1.000000 O
   O1695       1.0     0.486110     0.763890     0.572920    Biso  1.000000 O
   O1696       1.0     0.472220     0.777780     0.427080    Biso  1.000000 O
   O1697       1.0     0.472220     0.777780     0.906250    Biso  1.000000 O
   O1698       1.0     0.458330     0.750000     0.760410    Biso  1.000000 O
   Mn561       1.0     0.472220     0.777780     0.166670    Biso  1.000000 Mn
   Mn562       1.0     0.458330     0.750000     0.500000    Biso  1.000000 Mn
   Mn563       1.0     0.486110     0.763890     0.833330    Biso  1.000000 Mn
   Na850       1.0     0.458330     0.791670     0.000000    Biso  1.000000 Na
   Na851       1.0     0.486110     0.805560     0.333330    Biso  1.000000 Na
   Na852       1.0     0.472220     0.819440     0.666670    Biso  1.000000 Na
   O1699       1.0     0.458330     0.791670     0.239590    Biso  1.000000 O
   O1700       1.0     0.486110     0.805560     0.093750    Biso  1.000000 O
   O1701       1.0     0.486110     0.805560     0.572920    Biso  1.000000 O
   O1702       1.0     0.472220     0.819440     0.427080    Biso  1.000000 O
   O1703       1.0     0.472220     0.819440     0.906250    Biso  1.000000 O
   O1704       1.0     0.458330     0.791670     0.760410    Biso  1.000000 O
   Mn564       1.0     0.472220     0.819440     0.166670    Biso  1.000000 Mn
   Mn565       1.0     0.458330     0.791670     0.500000    Biso  1.000000 Mn
   Li109       1.0     0.486110     0.805560     0.833330    Biso  1.000000 Li
   Na853       1.0     0.458330     0.833330     0.000000    Biso  1.000000 Na
   Na854       1.0     0.486110     0.847220     0.333330    Biso  1.000000 Na
   Na855       1.0     0.472220     0.861110     0.666670    Biso  1.000000 Na
   O1705       1.0     0.458330     0.833330     0.239590    Biso  1.000000 O
   O1706       1.0     0.486110     0.847220     0.093750    Biso  1.000000 O
   O1707       1.0     0.486110     0.847220     0.572920    Biso  1.000000 O
   O1708       1.0     0.472220     0.861110     0.427080    Biso  1.000000 O
   O1709       1.0     0.472220     0.861110     0.906250    Biso  1.000000 O
   O1710       1.0     0.458330     0.833330     0.760410    Biso  1.000000 O
   Li110       1.0     0.472220     0.861110     0.166670    Biso  1.000000 Li
   Mn566       1.0     0.458330     0.833330     0.500000    Biso  1.000000 Mn
   Mn567       1.0     0.486110     0.847220     0.833330    Biso  1.000000 Mn
   Na856       1.0     0.458330     0.875000     0.000000    Biso  1.000000 Na
   Na857       1.0     0.486110     0.888890     0.333330    Biso  1.000000 Na
   Na858       1.0     0.472220     0.902780     0.666670    Biso  1.000000 Na
   O1711       1.0     0.458330     0.875000     0.239590    Biso  1.000000 O
   O1712       1.0     0.486110     0.888890     0.093750    Biso  1.000000 O
   O1713       1.0     0.486110     0.888890     0.572920    Biso  1.000000 O
   O1714       1.0     0.472220     0.902780     0.427080    Biso  1.000000 O
   O1715       1.0     0.472220     0.902780     0.906250    Biso  1.000000 O
   O1716       1.0     0.458330     0.875000     0.760410    Biso  1.000000 O
   Mn568       1.0     0.472220     0.902780     0.166670    Biso  1.000000 Mn
   Mn569       1.0     0.458330     0.875000     0.500000    Biso  1.000000 Mn
   Mn570       1.0     0.486110     0.888890     0.833330    Biso  1.000000 Mn
   Na859       1.0     0.458330     0.916670     0.000000    Biso  1.000000 Na
   Na860       1.0     0.486110     0.930560     0.333330    Biso  1.000000 Na
   Na861       1.0     0.472220     0.944440     0.666670    Biso  1.000000 Na
   O1717       1.0     0.458330     0.916670     0.239590    Biso  1.000000 O
   O1718       1.0     0.486110     0.930560     0.093750    Biso  1.000000 O
   O1719       1.0     0.486110     0.930560     0.572920    Biso  1.000000 O
   O1720       1.0     0.472220     0.944440     0.427080    Biso  1.000000 O
   O1721       1.0     0.472220     0.944440     0.906250    Biso  1.000000 O
   O1722       1.0     0.458330     0.916670     0.760410    Biso  1.000000 O
   Mn571       1.0     0.472220     0.944440     0.166670    Biso  1.000000 Mn
   Mn572       1.0     0.458330     0.916670     0.500000    Biso  1.000000 Mn
   Li111       1.0     0.486110     0.930560     0.833330    Biso  1.000000 Li
   Na862       1.0     0.458330     0.958330     0.000000    Biso  1.000000 Na
   Na863       1.0     0.486110     0.972220     0.333330    Biso  1.000000 Na
   Na864       1.0     0.472220     0.986110     0.666670    Biso  1.000000 Na
   O1723       1.0     0.458330     0.958330     0.239590    Biso  1.000000 O
   O1724       1.0     0.486110     0.972220     0.093750    Biso  1.000000 O
   O1725       1.0     0.486110     0.972220     0.572920    Biso  1.000000 O
   O1726       1.0     0.472220     0.986110     0.427080    Biso  1.000000 O
   O1727       1.0     0.472220     0.986110     0.906250    Biso  1.000000 O
   O1728       1.0     0.458330     0.958330     0.760410    Biso  1.000000 O
   Li112       1.0     0.472220     0.986110     0.166670    Biso  1.000000 Li
   Li113       1.0     0.458330     0.958330     0.500000    Biso  1.000000 Li
   Mn573       1.0     0.486110     0.972220     0.833330    Biso  1.000000 Mn
   Na865       1.0     0.500000     0.000000     0.000000    Biso  1.000000 Na
   Na866       1.0     0.527780     0.013890     0.333330    Biso  1.000000 Na
   Na867       1.0     0.513890     0.027780     0.666670    Biso  1.000000 Na
   O1729       1.0     0.500000     0.000000     0.239590    Biso  1.000000 O
   O1730       1.0     0.527780     0.013890     0.093750    Biso  1.000000 O
   O1731       1.0     0.527780     0.013890     0.572920    Biso  1.000000 O
   O1732       1.0     0.513890     0.027780     0.427080    Biso  1.000000 O
   O1733       1.0     0.513890     0.027780     0.906250    Biso  1.000000 O
   O1734       1.0     0.500000     0.000000     0.760410    Biso  1.000000 O
   Mn574       1.0     0.513890     0.027780     0.166670    Biso  1.000000 Mn
   Mn575       1.0     0.500000     0.000000     0.500000    Biso  1.000000 Mn
   Li114       1.0     0.527780     0.013890     0.833330    Biso  1.000000 Li
   Na868       1.0     0.500000     0.041670     0.000000    Biso  1.000000 Na
   Na869       1.0     0.527780     0.055560     0.333330    Biso  1.000000 Na
   Na870       1.0     0.513890     0.069440     0.666670    Biso  1.000000 Na
   O1735       1.0     0.500000     0.041670     0.239590    Biso  1.000000 O
   O1736       1.0     0.527780     0.055560     0.093750    Biso  1.000000 O
   O1737       1.0     0.527780     0.055560     0.572920    Biso  1.000000 O
   O1738       1.0     0.513890     0.069440     0.427080    Biso  1.000000 O
   O1739       1.0     0.513890     0.069440     0.906250    Biso  1.000000 O
   O1740       1.0     0.500000     0.041670     0.760410    Biso  1.000000 O
   Li115       1.0     0.513890     0.069440     0.166670    Biso  1.000000 Li
   Li116       1.0     0.500000     0.041670     0.500000    Biso  1.000000 Li
   Mn576       1.0     0.527780     0.055560     0.833330    Biso  1.000000 Mn
   Na871       1.0     0.500000     0.083330     0.000000    Biso  1.000000 Na
   Na872       1.0     0.527780     0.097220     0.333330    Biso  1.000000 Na
   Na873       1.0     0.513890     0.111110     0.666670    Biso  1.000000 Na
   O1741       1.0     0.500000     0.083330     0.239590    Biso  1.000000 O
   O1742       1.0     0.527780     0.097220     0.093750    Biso  1.000000 O
   O1743       1.0     0.527780     0.097220     0.572920    Biso  1.000000 O
   O1744       1.0     0.513890     0.111110     0.427080    Biso  1.000000 O
   O1745       1.0     0.513890     0.111110     0.906250    Biso  1.000000 O
   O1746       1.0     0.500000     0.083330     0.760410    Biso  1.000000 O
   Mn577       1.0     0.513890     0.111110     0.166670    Biso  1.000000 Mn
   Mn578       1.0     0.500000     0.083330     0.500000    Biso  1.000000 Mn
   Mn579       1.0     0.527780     0.097220     0.833330    Biso  1.000000 Mn
   Na874       1.0     0.500000     0.125000     0.000000    Biso  1.000000 Na
   Na875       1.0     0.527780     0.138890     0.333330    Biso  1.000000 Na
   Na876       1.0     0.513890     0.152780     0.666670    Biso  1.000000 Na
   O1747       1.0     0.500000     0.125000     0.239590    Biso  1.000000 O
   O1748       1.0     0.527780     0.138890     0.093750    Biso  1.000000 O
   O1749       1.0     0.527780     0.138890     0.572920    Biso  1.000000 O
   O1750       1.0     0.513890     0.152780     0.427080    Biso  1.000000 O
   O1751       1.0     0.513890     0.152780     0.906250    Biso  1.000000 O
   O1752       1.0     0.500000     0.125000     0.760410    Biso  1.000000 O
   Mn580       1.0     0.513890     0.152780     0.166670    Biso  1.000000 Mn
   Mn581       1.0     0.500000     0.125000     0.500000    Biso  1.000000 Mn
   Li117       1.0     0.527780     0.138890     0.833330    Biso  1.000000 Li
   Na877       1.0     0.500000     0.166670     0.000000    Biso  1.000000 Na
   Na878       1.0     0.527780     0.180560     0.333330    Biso  1.000000 Na
   Na879       1.0     0.513890     0.194440     0.666670    Biso  1.000000 Na
   O1753       1.0     0.500000     0.166670     0.239590    Biso  1.000000 O
   O1754       1.0     0.527780     0.180560     0.093750    Biso  1.000000 O
   O1755       1.0     0.527780     0.180560     0.572920    Biso  1.000000 O
   O1756       1.0     0.513890     0.194440     0.427080    Biso  1.000000 O
   O1757       1.0     0.513890     0.194440     0.906250    Biso  1.000000 O
   O1758       1.0     0.500000     0.166670     0.760410    Biso  1.000000 O
   Li118       1.0     0.513890     0.194440     0.166670    Biso  1.000000 Li
   Li119       1.0     0.500000     0.166670     0.500000    Biso  1.000000 Li
   Mn582       1.0     0.527780     0.180560     0.833330    Biso  1.000000 Mn
   Na880       1.0     0.500000     0.208330     0.000000    Biso  1.000000 Na
   Na881       1.0     0.527780     0.222220     0.333330    Biso  1.000000 Na
   Na882       1.0     0.513890     0.236110     0.666670    Biso  1.000000 Na
   O1759       1.0     0.500000     0.208330     0.239590    Biso  1.000000 O
   O1760       1.0     0.527780     0.222220     0.093750    Biso  1.000000 O
   O1761       1.0     0.527780     0.222220     0.572920    Biso  1.000000 O
   O1762       1.0     0.513890     0.236110     0.427080    Biso  1.000000 O
   O1763       1.0     0.513890     0.236110     0.906250    Biso  1.000000 O
   O1764       1.0     0.500000     0.208330     0.760410    Biso  1.000000 O
   Mn583       1.0     0.513890     0.236110     0.166670    Biso  1.000000 Mn
   Mn584       1.0     0.500000     0.208330     0.500000    Biso  1.000000 Mn
   Mn585       1.0     0.527780     0.222220     0.833330    Biso  1.000000 Mn
   Na883       1.0     0.500000     0.250000     0.000000    Biso  1.000000 Na
   Na884       1.0     0.527780     0.263890     0.333330    Biso  1.000000 Na
   Na885       1.0     0.513890     0.277780     0.666670    Biso  1.000000 Na
   O1765       1.0     0.500000     0.250000     0.239590    Biso  1.000000 O
   O1766       1.0     0.527780     0.263890     0.093750    Biso  1.000000 O
   O1767       1.0     0.527780     0.263890     0.572920    Biso  1.000000 O
   O1768       1.0     0.513890     0.277780     0.427080    Biso  1.000000 O
   O1769       1.0     0.513890     0.277780     0.906250    Biso  1.000000 O
   O1770       1.0     0.500000     0.250000     0.760410    Biso  1.000000 O
   Mn586       1.0     0.513890     0.277780     0.166670    Biso  1.000000 Mn
   Mn587       1.0     0.500000     0.250000     0.500000    Biso  1.000000 Mn
   Li120       1.0     0.527780     0.263890     0.833330    Biso  1.000000 Li
   Na886       1.0     0.500000     0.291670     0.000000    Biso  1.000000 Na
   Na887       1.0     0.527780     0.305560     0.333330    Biso  1.000000 Na
   Na888       1.0     0.513890     0.319440     0.666670    Biso  1.000000 Na
   O1771       1.0     0.500000     0.291670     0.239590    Biso  1.000000 O
   O1772       1.0     0.527780     0.305560     0.093750    Biso  1.000000 O
   O1773       1.0     0.527780     0.305560     0.572920    Biso  1.000000 O
   O1774       1.0     0.513890     0.319440     0.427080    Biso  1.000000 O
   O1775       1.0     0.513890     0.319440     0.906250    Biso  1.000000 O
   O1776       1.0     0.500000     0.291670     0.760410    Biso  1.000000 O
   Ni179       1.0     0.513890     0.319440     0.166670    Biso  1.000000 Ni
   Ni180       1.0     0.500000     0.291670     0.500000    Biso  1.000000 Ni
   Mn588       1.0     0.527780     0.305560     0.833330    Biso  1.000000 Mn
   Na889       1.0     0.500000     0.333330     0.000000    Biso  1.000000 Na
   Na890       1.0     0.527780     0.347220     0.333330    Biso  1.000000 Na
   Na891       1.0     0.513890     0.361110     0.666670    Biso  1.000000 Na
   O1777       1.0     0.500000     0.333330     0.239590    Biso  1.000000 O
   O1778       1.0     0.527780     0.347220     0.093750    Biso  1.000000 O
   O1779       1.0     0.527780     0.347220     0.572920    Biso  1.000000 O
   O1780       1.0     0.513890     0.361110     0.427080    Biso  1.000000 O
   O1781       1.0     0.513890     0.361110     0.906250    Biso  1.000000 O
   O1782       1.0     0.500000     0.333330     0.760410    Biso  1.000000 O
   Mn589       1.0     0.513890     0.361110     0.166670    Biso  1.000000 Mn
   Mn590       1.0     0.500000     0.333330     0.500000    Biso  1.000000 Mn
   Mn591       1.0     0.527780     0.347220     0.833330    Biso  1.000000 Mn
   Na892       1.0     0.500000     0.375000     0.000000    Biso  1.000000 Na
   Na893       1.0     0.527780     0.388890     0.333330    Biso  1.000000 Na
   Na894       1.0     0.513890     0.402780     0.666670    Biso  1.000000 Na
   O1783       1.0     0.500000     0.375000     0.239590    Biso  1.000000 O
   O1784       1.0     0.527780     0.388890     0.093750    Biso  1.000000 O
   O1785       1.0     0.527780     0.388890     0.572920    Biso  1.000000 O
   O1786       1.0     0.513890     0.402780     0.427080    Biso  1.000000 O
   O1787       1.0     0.513890     0.402780     0.906250    Biso  1.000000 O
   O1788       1.0     0.500000     0.375000     0.760410    Biso  1.000000 O
   Mn592       1.0     0.513890     0.402780     0.166670    Biso  1.000000 Mn
   Mn593       1.0     0.500000     0.375000     0.500000    Biso  1.000000 Mn
   Ni181       1.0     0.527780     0.388890     0.833330    Biso  1.000000 Ni
   Na895       1.0     0.500000     0.416670     0.000000    Biso  1.000000 Na
   Na896       1.0     0.527780     0.430560     0.333330    Biso  1.000000 Na
   Na897       1.0     0.513890     0.444440     0.666670    Biso  1.000000 Na
   O1789       1.0     0.500000     0.416670     0.239590    Biso  1.000000 O
   O1790       1.0     0.527780     0.430560     0.093750    Biso  1.000000 O
   O1791       1.0     0.527780     0.430560     0.572920    Biso  1.000000 O
   O1792       1.0     0.513890     0.444440     0.427080    Biso  1.000000 O
   O1793       1.0     0.513890     0.444440     0.906250    Biso  1.000000 O
   O1794       1.0     0.500000     0.416670     0.760410    Biso  1.000000 O
   Ni182       1.0     0.513890     0.444440     0.166670    Biso  1.000000 Ni
   Mn594       1.0     0.500000     0.416670     0.500000    Biso  1.000000 Mn
   Mn595       1.0     0.527780     0.430560     0.833330    Biso  1.000000 Mn
   Na898       1.0     0.500000     0.458330     0.000000    Biso  1.000000 Na
   Na899       1.0     0.527780     0.472220     0.333330    Biso  1.000000 Na
   Na900       1.0     0.513890     0.486110     0.666670    Biso  1.000000 Na
   O1795       1.0     0.500000     0.458330     0.239590    Biso  1.000000 O
   O1796       1.0     0.527780     0.472220     0.093750    Biso  1.000000 O
   O1797       1.0     0.527780     0.472220     0.572920    Biso  1.000000 O
   O1798       1.0     0.513890     0.486110     0.427080    Biso  1.000000 O
   O1799       1.0     0.513890     0.486110     0.906250    Biso  1.000000 O
   O1800       1.0     0.500000     0.458330     0.760410    Biso  1.000000 O
   Mn596       1.0     0.513890     0.486110     0.166670    Biso  1.000000 Mn
   Mn597       1.0     0.500000     0.458330     0.500000    Biso  1.000000 Mn
   Ni183       1.0     0.527780     0.472220     0.833330    Biso  1.000000 Ni
   Na901       1.0     0.500000     0.500000     0.000000    Biso  1.000000 Na
   Na902       1.0     0.527780     0.513890     0.333330    Biso  1.000000 Na
   Na903       1.0     0.513890     0.527780     0.666670    Biso  1.000000 Na
   O1801       1.0     0.500000     0.500000     0.239590    Biso  1.000000 O
   O1802       1.0     0.527780     0.513890     0.093750    Biso  1.000000 O
   O1803       1.0     0.527780     0.513890     0.572920    Biso  1.000000 O
   O1804       1.0     0.513890     0.527780     0.427080    Biso  1.000000 O
   O1805       1.0     0.513890     0.527780     0.906250    Biso  1.000000 O
   O1806       1.0     0.500000     0.500000     0.760410    Biso  1.000000 O
   Mn598       1.0     0.513890     0.527780     0.166670    Biso  1.000000 Mn
   Ni184       1.0     0.500000     0.500000     0.500000    Biso  1.000000 Ni
   Ni185       1.0     0.527780     0.513890     0.833330    Biso  1.000000 Ni
   Na904       1.0     0.500000     0.541670     0.000000    Biso  1.000000 Na
   Na905       1.0     0.527780     0.555560     0.333330    Biso  1.000000 Na
   Na906       1.0     0.513890     0.569440     0.666670    Biso  1.000000 Na
   O1807       1.0     0.500000     0.541670     0.239590    Biso  1.000000 O
   O1808       1.0     0.527780     0.555560     0.093750    Biso  1.000000 O
   O1809       1.0     0.527780     0.555560     0.572920    Biso  1.000000 O
   O1810       1.0     0.513890     0.569440     0.427080    Biso  1.000000 O
   O1811       1.0     0.513890     0.569440     0.906250    Biso  1.000000 O
   O1812       1.0     0.500000     0.541670     0.760410    Biso  1.000000 O
   Ni186       1.0     0.513890     0.569440     0.166670    Biso  1.000000 Ni
   Ni187       1.0     0.500000     0.541670     0.500000    Biso  1.000000 Ni
   Mn599       1.0     0.527780     0.555560     0.833330    Biso  1.000000 Mn
   Na907       1.0     0.500000     0.583330     0.000000    Biso  1.000000 Na
   Na908       1.0     0.527780     0.597220     0.333330    Biso  1.000000 Na
   Na909       1.0     0.513890     0.611110     0.666670    Biso  1.000000 Na
   O1813       1.0     0.500000     0.583330     0.239590    Biso  1.000000 O
   O1814       1.0     0.527780     0.597220     0.093750    Biso  1.000000 O
   O1815       1.0     0.527780     0.597220     0.572920    Biso  1.000000 O
   O1816       1.0     0.513890     0.611110     0.427080    Biso  1.000000 O
   O1817       1.0     0.513890     0.611110     0.906250    Biso  1.000000 O
   O1818       1.0     0.500000     0.583330     0.760410    Biso  1.000000 O
   Mn600       1.0     0.513890     0.611110     0.166670    Biso  1.000000 Mn
   Mn601       1.0     0.500000     0.583330     0.500000    Biso  1.000000 Mn
   Mn602       1.0     0.527780     0.597220     0.833330    Biso  1.000000 Mn
   Na910       1.0     0.500000     0.625000     0.000000    Biso  1.000000 Na
   Na911       1.0     0.527780     0.638890     0.333330    Biso  1.000000 Na
   Na912       1.0     0.513890     0.652780     0.666670    Biso  1.000000 Na
   O1819       1.0     0.500000     0.625000     0.239590    Biso  1.000000 O
   O1820       1.0     0.527780     0.638890     0.093750    Biso  1.000000 O
   O1821       1.0     0.527780     0.638890     0.572920    Biso  1.000000 O
   O1822       1.0     0.513890     0.652780     0.427080    Biso  1.000000 O
   O1823       1.0     0.513890     0.652780     0.906250    Biso  1.000000 O
   O1824       1.0     0.500000     0.625000     0.760410    Biso  1.000000 O
   Mn603       1.0     0.513890     0.652780     0.166670    Biso  1.000000 Mn
   Mn604       1.0     0.500000     0.625000     0.500000    Biso  1.000000 Mn
   Ni188       1.0     0.527780     0.638890     0.833330    Biso  1.000000 Ni
   Na913       1.0     0.500000     0.666670     0.000000    Biso  1.000000 Na
   Na914       1.0     0.527780     0.680560     0.333330    Biso  1.000000 Na
   Na915       1.0     0.513890     0.694440     0.666670    Biso  1.000000 Na
   O1825       1.0     0.500000     0.666670     0.239590    Biso  1.000000 O
   O1826       1.0     0.527780     0.680560     0.093750    Biso  1.000000 O
   O1827       1.0     0.527780     0.680560     0.572920    Biso  1.000000 O
   O1828       1.0     0.513890     0.694440     0.427080    Biso  1.000000 O
   O1829       1.0     0.513890     0.694440     0.906250    Biso  1.000000 O
   O1830       1.0     0.500000     0.666670     0.760410    Biso  1.000000 O
   Mn605       1.0     0.513890     0.694440     0.166670    Biso  1.000000 Mn
   Mn606       1.0     0.500000     0.666670     0.500000    Biso  1.000000 Mn
   Mn607       1.0     0.527780     0.680560     0.833330    Biso  1.000000 Mn
   Na916       1.0     0.500000     0.708330     0.000000    Biso  1.000000 Na
   Na917       1.0     0.527780     0.722220     0.333330    Biso  1.000000 Na
   Na918       1.0     0.513890     0.736110     0.666670    Biso  1.000000 Na
   O1831       1.0     0.500000     0.708330     0.239590    Biso  1.000000 O
   O1832       1.0     0.527780     0.722220     0.093750    Biso  1.000000 O
   O1833       1.0     0.527780     0.722220     0.572920    Biso  1.000000 O
   O1834       1.0     0.513890     0.736110     0.427080    Biso  1.000000 O
   O1835       1.0     0.513890     0.736110     0.906250    Biso  1.000000 O
   O1836       1.0     0.500000     0.708330     0.760410    Biso  1.000000 O
   Mn608       1.0     0.513890     0.736110     0.166670    Biso  1.000000 Mn
   Mn609       1.0     0.500000     0.708330     0.500000    Biso  1.000000 Mn
   Mn610       1.0     0.527780     0.722220     0.833330    Biso  1.000000 Mn
   Na919       1.0     0.500000     0.750000     0.000000    Biso  1.000000 Na
   Na920       1.0     0.527780     0.763890     0.333330    Biso  1.000000 Na
   Na921       1.0     0.513890     0.777780     0.666670    Biso  1.000000 Na
   O1837       1.0     0.500000     0.750000     0.239590    Biso  1.000000 O
   O1838       1.0     0.527780     0.763890     0.093750    Biso  1.000000 O
   O1839       1.0     0.527780     0.763890     0.572920    Biso  1.000000 O
   O1840       1.0     0.513890     0.777780     0.427080    Biso  1.000000 O
   O1841       1.0     0.513890     0.777780     0.906250    Biso  1.000000 O
   O1842       1.0     0.500000     0.750000     0.760410    Biso  1.000000 O
   Mn611       1.0     0.513890     0.777780     0.166670    Biso  1.000000 Mn
   Ni189       1.0     0.500000     0.750000     0.500000    Biso  1.000000 Ni
   Li121       1.0     0.527780     0.763890     0.833330    Biso  1.000000 Li
   Na922       1.0     0.500000     0.791670     0.000000    Biso  1.000000 Na
   Na923       1.0     0.527780     0.805560     0.333330    Biso  1.000000 Na
   Na924       1.0     0.513890     0.819440     0.666670    Biso  1.000000 Na
   O1843       1.0     0.500000     0.791670     0.239590    Biso  1.000000 O
   O1844       1.0     0.527780     0.805560     0.093750    Biso  1.000000 O
   O1845       1.0     0.527780     0.805560     0.572920    Biso  1.000000 O
   O1846       1.0     0.513890     0.819440     0.427080    Biso  1.000000 O
   O1847       1.0     0.513890     0.819440     0.906250    Biso  1.000000 O
   O1848       1.0     0.500000     0.791670     0.760410    Biso  1.000000 O
   Li122       1.0     0.513890     0.819440     0.166670    Biso  1.000000 Li
   Mn612       1.0     0.500000     0.791670     0.500000    Biso  1.000000 Mn
   Mn613       1.0     0.527780     0.805560     0.833330    Biso  1.000000 Mn
   Na925       1.0     0.500000     0.833330     0.000000    Biso  1.000000 Na
   Na926       1.0     0.527780     0.847220     0.333330    Biso  1.000000 Na
   Na927       1.0     0.513890     0.861110     0.666670    Biso  1.000000 Na
   O1849       1.0     0.500000     0.833330     0.239590    Biso  1.000000 O
   O1850       1.0     0.527780     0.847220     0.093750    Biso  1.000000 O
   O1851       1.0     0.527780     0.847220     0.572920    Biso  1.000000 O
   O1852       1.0     0.513890     0.861110     0.427080    Biso  1.000000 O
   O1853       1.0     0.513890     0.861110     0.906250    Biso  1.000000 O
   O1854       1.0     0.500000     0.833330     0.760410    Biso  1.000000 O
   Mn614       1.0     0.513890     0.861110     0.166670    Biso  1.000000 Mn
   Mn615       1.0     0.500000     0.833330     0.500000    Biso  1.000000 Mn
   Mn616       1.0     0.527780     0.847220     0.833330    Biso  1.000000 Mn
   Na928       1.0     0.500000     0.875000     0.000000    Biso  1.000000 Na
   Na929       1.0     0.527780     0.888890     0.333330    Biso  1.000000 Na
   Na930       1.0     0.513890     0.902780     0.666670    Biso  1.000000 Na
   O1855       1.0     0.500000     0.875000     0.239590    Biso  1.000000 O
   O1856       1.0     0.527780     0.888890     0.093750    Biso  1.000000 O
   O1857       1.0     0.527780     0.888890     0.572920    Biso  1.000000 O
   O1858       1.0     0.513890     0.902780     0.427080    Biso  1.000000 O
   O1859       1.0     0.513890     0.902780     0.906250    Biso  1.000000 O
   O1860       1.0     0.500000     0.875000     0.760410    Biso  1.000000 O
   Mn617       1.0     0.513890     0.902780     0.166670    Biso  1.000000 Mn
   Li123       1.0     0.500000     0.875000     0.500000    Biso  1.000000 Li
   Li124       1.0     0.527780     0.888890     0.833330    Biso  1.000000 Li
   Na931       1.0     0.500000     0.916670     0.000000    Biso  1.000000 Na
   Na932       1.0     0.527780     0.930560     0.333330    Biso  1.000000 Na
   Na933       1.0     0.513890     0.944440     0.666670    Biso  1.000000 Na
   O1861       1.0     0.500000     0.916670     0.239590    Biso  1.000000 O
   O1862       1.0     0.527780     0.930560     0.093750    Biso  1.000000 O
   O1863       1.0     0.527780     0.930560     0.572920    Biso  1.000000 O
   O1864       1.0     0.513890     0.944440     0.427080    Biso  1.000000 O
   O1865       1.0     0.513890     0.944440     0.906250    Biso  1.000000 O
   O1866       1.0     0.500000     0.916670     0.760410    Biso  1.000000 O
   Li125       1.0     0.513890     0.944440     0.166670    Biso  1.000000 Li
   Mn618       1.0     0.500000     0.916670     0.500000    Biso  1.000000 Mn
   Mn619       1.0     0.527780     0.930560     0.833330    Biso  1.000000 Mn
   Na934       1.0     0.500000     0.958330     0.000000    Biso  1.000000 Na
   Na935       1.0     0.527780     0.972220     0.333330    Biso  1.000000 Na
   Na936       1.0     0.513890     0.986110     0.666670    Biso  1.000000 Na
   O1867       1.0     0.500000     0.958330     0.239590    Biso  1.000000 O
   O1868       1.0     0.527780     0.972220     0.093750    Biso  1.000000 O
   O1869       1.0     0.527780     0.972220     0.572920    Biso  1.000000 O
   O1870       1.0     0.513890     0.986110     0.427080    Biso  1.000000 O
   O1871       1.0     0.513890     0.986110     0.906250    Biso  1.000000 O
   O1872       1.0     0.500000     0.958330     0.760410    Biso  1.000000 O
   Mn620       1.0     0.513890     0.986110     0.166670    Biso  1.000000 Mn
   Mn621       1.0     0.500000     0.958330     0.500000    Biso  1.000000 Mn
   Mn622       1.0     0.527780     0.972220     0.833330    Biso  1.000000 Mn
   Na937       1.0     0.541670     0.000000     0.000000    Biso  1.000000 Na
   Na938       1.0     0.569440     0.013890     0.333330    Biso  1.000000 Na
   Na939       1.0     0.555560     0.027780     0.666670    Biso  1.000000 Na
   O1873       1.0     0.541670     0.000000     0.239590    Biso  1.000000 O
   O1874       1.0     0.569440     0.013890     0.093750    Biso  1.000000 O
   O1875       1.0     0.569440     0.013890     0.572920    Biso  1.000000 O
   O1876       1.0     0.555560     0.027780     0.427080    Biso  1.000000 O
   O1877       1.0     0.555560     0.027780     0.906250    Biso  1.000000 O
   O1878       1.0     0.541670     0.000000     0.760410    Biso  1.000000 O
   Li126       1.0     0.555560     0.027780     0.166670    Biso  1.000000 Li
   Mn623       1.0     0.541670     0.000000     0.500000    Biso  1.000000 Mn
   Mn624       1.0     0.569440     0.013890     0.833330    Biso  1.000000 Mn
   Na940       1.0     0.541670     0.041670     0.000000    Biso  1.000000 Na
   Na941       1.0     0.569440     0.055560     0.333330    Biso  1.000000 Na
   Na942       1.0     0.555560     0.069440     0.666670    Biso  1.000000 Na
   O1879       1.0     0.541670     0.041670     0.239590    Biso  1.000000 O
   O1880       1.0     0.569440     0.055560     0.093750    Biso  1.000000 O
   O1881       1.0     0.569440     0.055560     0.572920    Biso  1.000000 O
   O1882       1.0     0.555560     0.069440     0.427080    Biso  1.000000 O
   O1883       1.0     0.555560     0.069440     0.906250    Biso  1.000000 O
   O1884       1.0     0.541670     0.041670     0.760410    Biso  1.000000 O
   Mn625       1.0     0.555560     0.069440     0.166670    Biso  1.000000 Mn
   Mn626       1.0     0.541670     0.041670     0.500000    Biso  1.000000 Mn
   Mn627       1.0     0.569440     0.055560     0.833330    Biso  1.000000 Mn
   Na943       1.0     0.541670     0.083330     0.000000    Biso  1.000000 Na
   Na944       1.0     0.569440     0.097220     0.333330    Biso  1.000000 Na
   Na945       1.0     0.555560     0.111110     0.666670    Biso  1.000000 Na
   O1885       1.0     0.541670     0.083330     0.239590    Biso  1.000000 O
   O1886       1.0     0.569440     0.097220     0.093750    Biso  1.000000 O
   O1887       1.0     0.569440     0.097220     0.572920    Biso  1.000000 O
   O1888       1.0     0.555560     0.111110     0.427080    Biso  1.000000 O
   O1889       1.0     0.555560     0.111110     0.906250    Biso  1.000000 O
   O1890       1.0     0.541670     0.083330     0.760410    Biso  1.000000 O
   Mn628       1.0     0.555560     0.111110     0.166670    Biso  1.000000 Mn
   Mn629       1.0     0.541670     0.083330     0.500000    Biso  1.000000 Mn
   Li127       1.0     0.569440     0.097220     0.833330    Biso  1.000000 Li
   Na946       1.0     0.541670     0.125000     0.000000    Biso  1.000000 Na
   Na947       1.0     0.569440     0.138890     0.333330    Biso  1.000000 Na
   Na948       1.0     0.555560     0.152780     0.666670    Biso  1.000000 Na
   O1891       1.0     0.541670     0.125000     0.239590    Biso  1.000000 O
   O1892       1.0     0.569440     0.138890     0.093750    Biso  1.000000 O
   O1893       1.0     0.569440     0.138890     0.572920    Biso  1.000000 O
   O1894       1.0     0.555560     0.152780     0.427080    Biso  1.000000 O
   O1895       1.0     0.555560     0.152780     0.906250    Biso  1.000000 O
   O1896       1.0     0.541670     0.125000     0.760410    Biso  1.000000 O
   Li128       1.0     0.555560     0.152780     0.166670    Biso  1.000000 Li
   Li129       1.0     0.541670     0.125000     0.500000    Biso  1.000000 Li
   Mn630       1.0     0.569440     0.138890     0.833330    Biso  1.000000 Mn
   Na949       1.0     0.541670     0.166670     0.000000    Biso  1.000000 Na
   Na950       1.0     0.569440     0.180560     0.333330    Biso  1.000000 Na
   Na951       1.0     0.555560     0.194440     0.666670    Biso  1.000000 Na
   O1897       1.0     0.541670     0.166670     0.239590    Biso  1.000000 O
   O1898       1.0     0.569440     0.180560     0.093750    Biso  1.000000 O
   O1899       1.0     0.569440     0.180560     0.572920    Biso  1.000000 O
   O1900       1.0     0.555560     0.194440     0.427080    Biso  1.000000 O
   O1901       1.0     0.555560     0.194440     0.906250    Biso  1.000000 O
   O1902       1.0     0.541670     0.166670     0.760410    Biso  1.000000 O
   Mn631       1.0     0.555560     0.194440     0.166670    Biso  1.000000 Mn
   Mn632       1.0     0.541670     0.166670     0.500000    Biso  1.000000 Mn
   Mn633       1.0     0.569440     0.180560     0.833330    Biso  1.000000 Mn
   Na952       1.0     0.541670     0.208330     0.000000    Biso  1.000000 Na
   Na953       1.0     0.569440     0.222220     0.333330    Biso  1.000000 Na
   Na954       1.0     0.555560     0.236110     0.666670    Biso  1.000000 Na
   O1903       1.0     0.541670     0.208330     0.239590    Biso  1.000000 O
   O1904       1.0     0.569440     0.222220     0.093750    Biso  1.000000 O
   O1905       1.0     0.569440     0.222220     0.572920    Biso  1.000000 O
   O1906       1.0     0.555560     0.236110     0.427080    Biso  1.000000 O
   O1907       1.0     0.555560     0.236110     0.906250    Biso  1.000000 O
   O1908       1.0     0.541670     0.208330     0.760410    Biso  1.000000 O
   Mn634       1.0     0.555560     0.236110     0.166670    Biso  1.000000 Mn
   Mn635       1.0     0.541670     0.208330     0.500000    Biso  1.000000 Mn
   Li130       1.0     0.569440     0.222220     0.833330    Biso  1.000000 Li
   Na955       1.0     0.541670     0.250000     0.000000    Biso  1.000000 Na
   Na956       1.0     0.569440     0.263890     0.333330    Biso  1.000000 Na
   Na957       1.0     0.555560     0.277780     0.666670    Biso  1.000000 Na
   O1909       1.0     0.541670     0.250000     0.239590    Biso  1.000000 O
   O1910       1.0     0.569440     0.263890     0.093750    Biso  1.000000 O
   O1911       1.0     0.569440     0.263890     0.572920    Biso  1.000000 O
   O1912       1.0     0.555560     0.277780     0.427080    Biso  1.000000 O
   O1913       1.0     0.555560     0.277780     0.906250    Biso  1.000000 O
   O1914       1.0     0.541670     0.250000     0.760410    Biso  1.000000 O
   Li131       1.0     0.555560     0.277780     0.166670    Biso  1.000000 Li
   Li132       1.0     0.541670     0.250000     0.500000    Biso  1.000000 Li
   Mn636       1.0     0.569440     0.263890     0.833330    Biso  1.000000 Mn
   Na958       1.0     0.541670     0.291670     0.000000    Biso  1.000000 Na
   Na959       1.0     0.569440     0.305560     0.333330    Biso  1.000000 Na
   Na960       1.0     0.555560     0.319440     0.666670    Biso  1.000000 Na
   O1915       1.0     0.541670     0.291670     0.239590    Biso  1.000000 O
   O1916       1.0     0.569440     0.305560     0.093750    Biso  1.000000 O
   O1917       1.0     0.569440     0.305560     0.572920    Biso  1.000000 O
   O1918       1.0     0.555560     0.319440     0.427080    Biso  1.000000 O
   O1919       1.0     0.555560     0.319440     0.906250    Biso  1.000000 O
   O1920       1.0     0.541670     0.291670     0.760410    Biso  1.000000 O
   Mn637       1.0     0.555560     0.319440     0.166670    Biso  1.000000 Mn
   Mn638       1.0     0.541670     0.291670     0.500000    Biso  1.000000 Mn
   Mn639       1.0     0.569440     0.305560     0.833330    Biso  1.000000 Mn
   Na961       1.0     0.541670     0.333330     0.000000    Biso  1.000000 Na
   Na962       1.0     0.569440     0.347220     0.333330    Biso  1.000000 Na
   Na963       1.0     0.555560     0.361110     0.666670    Biso  1.000000 Na
   O1921       1.0     0.541670     0.333330     0.239590    Biso  1.000000 O
   O1922       1.0     0.569440     0.347220     0.093750    Biso  1.000000 O
   O1923       1.0     0.569440     0.347220     0.572920    Biso  1.000000 O
   O1924       1.0     0.555560     0.361110     0.427080    Biso  1.000000 O
   O1925       1.0     0.555560     0.361110     0.906250    Biso  1.000000 O
   O1926       1.0     0.541670     0.333330     0.760410    Biso  1.000000 O
   Mn640       1.0     0.555560     0.361110     0.166670    Biso  1.000000 Mn
   Mn641       1.0     0.541670     0.333330     0.500000    Biso  1.000000 Mn
   Li133       1.0     0.569440     0.347220     0.833330    Biso  1.000000 Li
   Na964       1.0     0.541670     0.375000     0.000000    Biso  1.000000 Na
   Na965       1.0     0.569440     0.388890     0.333330    Biso  1.000000 Na
   Na966       1.0     0.555560     0.402780     0.666670    Biso  1.000000 Na
   O1927       1.0     0.541670     0.375000     0.239590    Biso  1.000000 O
   O1928       1.0     0.569440     0.388890     0.093750    Biso  1.000000 O
   O1929       1.0     0.569440     0.388890     0.572920    Biso  1.000000 O
   O1930       1.0     0.555560     0.402780     0.427080    Biso  1.000000 O
   O1931       1.0     0.555560     0.402780     0.906250    Biso  1.000000 O
   O1932       1.0     0.541670     0.375000     0.760410    Biso  1.000000 O
   Ni190       1.0     0.555560     0.402780     0.166670    Biso  1.000000 Ni
   Ni191       1.0     0.541670     0.375000     0.500000    Biso  1.000000 Ni
   Mn642       1.0     0.569440     0.388890     0.833330    Biso  1.000000 Mn
   Na967       1.0     0.541670     0.416670     0.000000    Biso  1.000000 Na
   Na968       1.0     0.569440     0.430560     0.333330    Biso  1.000000 Na
   Na969       1.0     0.555560     0.444440     0.666670    Biso  1.000000 Na
   O1933       1.0     0.541670     0.416670     0.239590    Biso  1.000000 O
   O1934       1.0     0.569440     0.430560     0.093750    Biso  1.000000 O
   O1935       1.0     0.569440     0.430560     0.572920    Biso  1.000000 O
   O1936       1.0     0.555560     0.444440     0.427080    Biso  1.000000 O
   O1937       1.0     0.555560     0.444440     0.906250    Biso  1.000000 O
   O1938       1.0     0.541670     0.416670     0.760410    Biso  1.000000 O
   Mn643       1.0     0.555560     0.444440     0.166670    Biso  1.000000 Mn
   Mn644       1.0     0.541670     0.416670     0.500000    Biso  1.000000 Mn
   Mn645       1.0     0.569440     0.430560     0.833330    Biso  1.000000 Mn
   Na970       1.0     0.541670     0.458330     0.000000    Biso  1.000000 Na
   Na971       1.0     0.569440     0.472220     0.333330    Biso  1.000000 Na
   Na972       1.0     0.555560     0.486110     0.666670    Biso  1.000000 Na
   O1939       1.0     0.541670     0.458330     0.239590    Biso  1.000000 O
   O1940       1.0     0.569440     0.472220     0.093750    Biso  1.000000 O
   O1941       1.0     0.569440     0.472220     0.572920    Biso  1.000000 O
   O1942       1.0     0.555560     0.486110     0.427080    Biso  1.000000 O
   O1943       1.0     0.555560     0.486110     0.906250    Biso  1.000000 O
   O1944       1.0     0.541670     0.458330     0.760410    Biso  1.000000 O
   Mn646       1.0     0.555560     0.486110     0.166670    Biso  1.000000 Mn
   Ni192       1.0     0.541670     0.458330     0.500000    Biso  1.000000 Ni
   Mn647       1.0     0.569440     0.472220     0.833330    Biso  1.000000 Mn
   Na973       1.0     0.541670     0.500000     0.000000    Biso  1.000000 Na
   Na974       1.0     0.569440     0.513890     0.333330    Biso  1.000000 Na
   Na975       1.0     0.555560     0.527780     0.666670    Biso  1.000000 Na
   O1945       1.0     0.541670     0.500000     0.239590    Biso  1.000000 O
   O1946       1.0     0.569440     0.513890     0.093750    Biso  1.000000 O
   O1947       1.0     0.569440     0.513890     0.572920    Biso  1.000000 O
   O1948       1.0     0.555560     0.527780     0.427080    Biso  1.000000 O
   O1949       1.0     0.555560     0.527780     0.906250    Biso  1.000000 O
   O1950       1.0     0.541670     0.500000     0.760410    Biso  1.000000 O
   Ni193       1.0     0.555560     0.527780     0.166670    Biso  1.000000 Ni
   Mn648       1.0     0.541670     0.500000     0.500000    Biso  1.000000 Mn
   Ni194       1.0     0.569440     0.513890     0.833330    Biso  1.000000 Ni
   Na976       1.0     0.541670     0.541670     0.000000    Biso  1.000000 Na
   Na977       1.0     0.569440     0.555560     0.333330    Biso  1.000000 Na
   Na978       1.0     0.555560     0.569440     0.666670    Biso  1.000000 Na
   O1951       1.0     0.541670     0.541670     0.239590    Biso  1.000000 O
   O1952       1.0     0.569440     0.555560     0.093750    Biso  1.000000 O
   O1953       1.0     0.569440     0.555560     0.572920    Biso  1.000000 O
   O1954       1.0     0.555560     0.569440     0.427080    Biso  1.000000 O
   O1955       1.0     0.555560     0.569440     0.906250    Biso  1.000000 O
   O1956       1.0     0.541670     0.541670     0.760410    Biso  1.000000 O
   Mn649       1.0     0.555560     0.569440     0.166670    Biso  1.000000 Mn
   Mn650       1.0     0.541670     0.541670     0.500000    Biso  1.000000 Mn
   Ni195       1.0     0.569440     0.555560     0.833330    Biso  1.000000 Ni
   Na979       1.0     0.541670     0.583330     0.000000    Biso  1.000000 Na
   Na980       1.0     0.569440     0.597220     0.333330    Biso  1.000000 Na
   Na981       1.0     0.555560     0.611110     0.666670    Biso  1.000000 Na
   O1957       1.0     0.541670     0.583330     0.239590    Biso  1.000000 O
   O1958       1.0     0.569440     0.597220     0.093750    Biso  1.000000 O
   O1959       1.0     0.569440     0.597220     0.572920    Biso  1.000000 O
   O1960       1.0     0.555560     0.611110     0.427080    Biso  1.000000 O
   O1961       1.0     0.555560     0.611110     0.906250    Biso  1.000000 O
   O1962       1.0     0.541670     0.583330     0.760410    Biso  1.000000 O
   Mn651       1.0     0.555560     0.611110     0.166670    Biso  1.000000 Mn
   Mn652       1.0     0.541670     0.583330     0.500000    Biso  1.000000 Mn
   Mn653       1.0     0.569440     0.597220     0.833330    Biso  1.000000 Mn
   Na982       1.0     0.541670     0.625000     0.000000    Biso  1.000000 Na
   Na983       1.0     0.569440     0.638890     0.333330    Biso  1.000000 Na
   Na984       1.0     0.555560     0.652780     0.666670    Biso  1.000000 Na
   O1963       1.0     0.541670     0.625000     0.239590    Biso  1.000000 O
   O1964       1.0     0.569440     0.638890     0.093750    Biso  1.000000 O
   O1965       1.0     0.569440     0.638890     0.572920    Biso  1.000000 O
   O1966       1.0     0.555560     0.652780     0.427080    Biso  1.000000 O
   O1967       1.0     0.555560     0.652780     0.906250    Biso  1.000000 O
   O1968       1.0     0.541670     0.625000     0.760410    Biso  1.000000 O
   Ni196       1.0     0.555560     0.652780     0.166670    Biso  1.000000 Ni
   Ni197       1.0     0.541670     0.625000     0.500000    Biso  1.000000 Ni
   Mn654       1.0     0.569440     0.638890     0.833330    Biso  1.000000 Mn
   Na985       1.0     0.541670     0.666670     0.000000    Biso  1.000000 Na
   Na986       1.0     0.569440     0.680560     0.333330    Biso  1.000000 Na
   Na987       1.0     0.555560     0.694440     0.666670    Biso  1.000000 Na
   O1969       1.0     0.541670     0.666670     0.239590    Biso  1.000000 O
   O1970       1.0     0.569440     0.680560     0.093750    Biso  1.000000 O
   O1971       1.0     0.569440     0.680560     0.572920    Biso  1.000000 O
   O1972       1.0     0.555560     0.694440     0.427080    Biso  1.000000 O
   O1973       1.0     0.555560     0.694440     0.906250    Biso  1.000000 O
   O1974       1.0     0.541670     0.666670     0.760410    Biso  1.000000 O
   Mn655       1.0     0.555560     0.694440     0.166670    Biso  1.000000 Mn
   Mn656       1.0     0.541670     0.666670     0.500000    Biso  1.000000 Mn
   Mn657       1.0     0.569440     0.680560     0.833330    Biso  1.000000 Mn
   Na988       1.0     0.541670     0.708330     0.000000    Biso  1.000000 Na
   Na989       1.0     0.569440     0.722220     0.333330    Biso  1.000000 Na
   Na990       1.0     0.555560     0.736110     0.666670    Biso  1.000000 Na
   O1975       1.0     0.541670     0.708330     0.239590    Biso  1.000000 O
   O1976       1.0     0.569440     0.722220     0.093750    Biso  1.000000 O
   O1977       1.0     0.569440     0.722220     0.572920    Biso  1.000000 O
   O1978       1.0     0.555560     0.736110     0.427080    Biso  1.000000 O
   O1979       1.0     0.555560     0.736110     0.906250    Biso  1.000000 O
   O1980       1.0     0.541670     0.708330     0.760410    Biso  1.000000 O
   Mn658       1.0     0.555560     0.736110     0.166670    Biso  1.000000 Mn
   Ni198       1.0     0.541670     0.708330     0.500000    Biso  1.000000 Ni
   Ni199       1.0     0.569440     0.722220     0.833330    Biso  1.000000 Ni
   Na991       1.0     0.541670     0.750000     0.000000    Biso  1.000000 Na
   Na992       1.0     0.569440     0.763890     0.333330    Biso  1.000000 Na
   Na993       1.0     0.555560     0.777780     0.666670    Biso  1.000000 Na
   O1981       1.0     0.541670     0.750000     0.239590    Biso  1.000000 O
   O1982       1.0     0.569440     0.763890     0.093750    Biso  1.000000 O
   O1983       1.0     0.569440     0.763890     0.572920    Biso  1.000000 O
   O1984       1.0     0.555560     0.777780     0.427080    Biso  1.000000 O
   O1985       1.0     0.555560     0.777780     0.906250    Biso  1.000000 O
   O1986       1.0     0.541670     0.750000     0.760410    Biso  1.000000 O
   Li134       1.0     0.555560     0.777780     0.166670    Biso  1.000000 Li
   Mn659       1.0     0.541670     0.750000     0.500000    Biso  1.000000 Mn
   Mn660       1.0     0.569440     0.763890     0.833330    Biso  1.000000 Mn
   Na994       1.0     0.541670     0.791670     0.000000    Biso  1.000000 Na
   Na995       1.0     0.569440     0.805560     0.333330    Biso  1.000000 Na
   Na996       1.0     0.555560     0.819440     0.666670    Biso  1.000000 Na
   O1987       1.0     0.541670     0.791670     0.239590    Biso  1.000000 O
   O1988       1.0     0.569440     0.805560     0.093750    Biso  1.000000 O
   O1989       1.0     0.569440     0.805560     0.572920    Biso  1.000000 O
   O1990       1.0     0.555560     0.819440     0.427080    Biso  1.000000 O
   O1991       1.0     0.555560     0.819440     0.906250    Biso  1.000000 O
   O1992       1.0     0.541670     0.791670     0.760410    Biso  1.000000 O
   Mn661       1.0     0.555560     0.819440     0.166670    Biso  1.000000 Mn
   Mn662       1.0     0.541670     0.791670     0.500000    Biso  1.000000 Mn
   Mn663       1.0     0.569440     0.805560     0.833330    Biso  1.000000 Mn
   Na997       1.0     0.541670     0.833330     0.000000    Biso  1.000000 Na
   Na998       1.0     0.569440     0.847220     0.333330    Biso  1.000000 Na
   Na999       1.0     0.555560     0.861110     0.666670    Biso  1.000000 Na
   O1993       1.0     0.541670     0.833330     0.239590    Biso  1.000000 O
   O1994       1.0     0.569440     0.847220     0.093750    Biso  1.000000 O
   O1995       1.0     0.569440     0.847220     0.572920    Biso  1.000000 O
   O1996       1.0     0.555560     0.861110     0.427080    Biso  1.000000 O
   O1997       1.0     0.555560     0.861110     0.906250    Biso  1.000000 O
   O1998       1.0     0.541670     0.833330     0.760410    Biso  1.000000 O
   Mn664       1.0     0.555560     0.861110     0.166670    Biso  1.000000 Mn
   Li135       1.0     0.541670     0.833330     0.500000    Biso  1.000000 Li
   Li136       1.0     0.569440     0.847220     0.833330    Biso  1.000000 Li
   Na1000      1.0     0.541670     0.875000     0.000000    Biso  1.000000 Na
   Na1001      1.0     0.569440     0.888890     0.333330    Biso  1.000000 Na
   Na1002      1.0     0.555560     0.902780     0.666670    Biso  1.000000 Na
   O1999       1.0     0.541670     0.875000     0.239590    Biso  1.000000 O
   O2000       1.0     0.569440     0.888890     0.093750    Biso  1.000000 O
   O2001       1.0     0.569440     0.888890     0.572920    Biso  1.000000 O
   O2002       1.0     0.555560     0.902780     0.427080    Biso  1.000000 O
   O2003       1.0     0.555560     0.902780     0.906250    Biso  1.000000 O
   O2004       1.0     0.541670     0.875000     0.760410    Biso  1.000000 O
   Li137       1.0     0.555560     0.902780     0.166670    Biso  1.000000 Li
   Mn665       1.0     0.541670     0.875000     0.500000    Biso  1.000000 Mn
   Mn666       1.0     0.569440     0.888890     0.833330    Biso  1.000000 Mn
   Na1003      1.0     0.541670     0.916670     0.000000    Biso  1.000000 Na
   Na1004      1.0     0.569440     0.930560     0.333330    Biso  1.000000 Na
   Na1005      1.0     0.555560     0.944440     0.666670    Biso  1.000000 Na
   O2005       1.0     0.541670     0.916670     0.239590    Biso  1.000000 O
   O2006       1.0     0.569440     0.930560     0.093750    Biso  1.000000 O
   O2007       1.0     0.569440     0.930560     0.572920    Biso  1.000000 O
   O2008       1.0     0.555560     0.944440     0.427080    Biso  1.000000 O
   O2009       1.0     0.555560     0.944440     0.906250    Biso  1.000000 O
   O2010       1.0     0.541670     0.916670     0.760410    Biso  1.000000 O
   Mn667       1.0     0.555560     0.944440     0.166670    Biso  1.000000 Mn
   Mn668       1.0     0.541670     0.916670     0.500000    Biso  1.000000 Mn
   Mn669       1.0     0.569440     0.930560     0.833330    Biso  1.000000 Mn
   Na1006      1.0     0.541670     0.958330     0.000000    Biso  1.000000 Na
   Na1007      1.0     0.569440     0.972220     0.333330    Biso  1.000000 Na
   Na1008      1.0     0.555560     0.986110     0.666670    Biso  1.000000 Na
   O2011       1.0     0.541670     0.958330     0.239590    Biso  1.000000 O
   O2012       1.0     0.569440     0.972220     0.093750    Biso  1.000000 O
   O2013       1.0     0.569440     0.972220     0.572920    Biso  1.000000 O
   O2014       1.0     0.555560     0.986110     0.427080    Biso  1.000000 O
   O2015       1.0     0.555560     0.986110     0.906250    Biso  1.000000 O
   O2016       1.0     0.541670     0.958330     0.760410    Biso  1.000000 O
   Mn670       1.0     0.555560     0.986110     0.166670    Biso  1.000000 Mn
   Li138       1.0     0.541670     0.958330     0.500000    Biso  1.000000 Li
   Li139       1.0     0.569440     0.972220     0.833330    Biso  1.000000 Li
   Na1009      1.0     0.583330     0.000000     0.000000    Biso  1.000000 Na
   Na1010      1.0     0.611110     0.013890     0.333330    Biso  1.000000 Na
   Na1011      1.0     0.597220     0.027780     0.666670    Biso  1.000000 Na
   O2017       1.0     0.583330     0.000000     0.239590    Biso  1.000000 O
   O2018       1.0     0.611110     0.013890     0.093750    Biso  1.000000 O
   O2019       1.0     0.611110     0.013890     0.572920    Biso  1.000000 O
   O2020       1.0     0.597220     0.027780     0.427080    Biso  1.000000 O
   O2021       1.0     0.597220     0.027780     0.906250    Biso  1.000000 O
   O2022       1.0     0.583330     0.000000     0.760410    Biso  1.000000 O
   Mn671       1.0     0.597220     0.027780     0.166670    Biso  1.000000 Mn
   Mn672       1.0     0.583330     0.000000     0.500000    Biso  1.000000 Mn
   Mn673       1.0     0.611110     0.013890     0.833330    Biso  1.000000 Mn
   Na1012      1.0     0.583330     0.041670     0.000000    Biso  1.000000 Na
   Na1013      1.0     0.611110     0.055560     0.333330    Biso  1.000000 Na
   Na1014      1.0     0.597220     0.069440     0.666670    Biso  1.000000 Na
   O2023       1.0     0.583330     0.041670     0.239590    Biso  1.000000 O
   O2024       1.0     0.611110     0.055560     0.093750    Biso  1.000000 O
   O2025       1.0     0.611110     0.055560     0.572920    Biso  1.000000 O
   O2026       1.0     0.597220     0.069440     0.427080    Biso  1.000000 O
   O2027       1.0     0.597220     0.069440     0.906250    Biso  1.000000 O
   O2028       1.0     0.583330     0.041670     0.760410    Biso  1.000000 O
   Mn674       1.0     0.597220     0.069440     0.166670    Biso  1.000000 Mn
   Li140       1.0     0.583330     0.041670     0.500000    Biso  1.000000 Li
   Li141       1.0     0.611110     0.055560     0.833330    Biso  1.000000 Li
   Na1015      1.0     0.583330     0.083330     0.000000    Biso  1.000000 Na
   Na1016      1.0     0.611110     0.097220     0.333330    Biso  1.000000 Na
   Na1017      1.0     0.597220     0.111110     0.666670    Biso  1.000000 Na
   O2029       1.0     0.583330     0.083330     0.239590    Biso  1.000000 O
   O2030       1.0     0.611110     0.097220     0.093750    Biso  1.000000 O
   O2031       1.0     0.611110     0.097220     0.572920    Biso  1.000000 O
   O2032       1.0     0.597220     0.111110     0.427080    Biso  1.000000 O
   O2033       1.0     0.597220     0.111110     0.906250    Biso  1.000000 O
   O2034       1.0     0.583330     0.083330     0.760410    Biso  1.000000 O
   Li142       1.0     0.597220     0.111110     0.166670    Biso  1.000000 Li
   Mn675       1.0     0.583330     0.083330     0.500000    Biso  1.000000 Mn
   Mn676       1.0     0.611110     0.097220     0.833330    Biso  1.000000 Mn
   Na1018      1.0     0.583330     0.125000     0.000000    Biso  1.000000 Na
   Na1019      1.0     0.611110     0.138890     0.333330    Biso  1.000000 Na
   Na1020      1.0     0.597220     0.152780     0.666670    Biso  1.000000 Na
   O2035       1.0     0.583330     0.125000     0.239590    Biso  1.000000 O
   O2036       1.0     0.611110     0.138890     0.093750    Biso  1.000000 O
   O2037       1.0     0.611110     0.138890     0.572920    Biso  1.000000 O
   O2038       1.0     0.597220     0.152780     0.427080    Biso  1.000000 O
   O2039       1.0     0.597220     0.152780     0.906250    Biso  1.000000 O
   O2040       1.0     0.583330     0.125000     0.760410    Biso  1.000000 O
   Mn677       1.0     0.597220     0.152780     0.166670    Biso  1.000000 Mn
   Mn678       1.0     0.583330     0.125000     0.500000    Biso  1.000000 Mn
   Mn679       1.0     0.611110     0.138890     0.833330    Biso  1.000000 Mn
   Na1021      1.0     0.583330     0.166670     0.000000    Biso  1.000000 Na
   Na1022      1.0     0.611110     0.180560     0.333330    Biso  1.000000 Na
   Na1023      1.0     0.597220     0.194440     0.666670    Biso  1.000000 Na
   O2041       1.0     0.583330     0.166670     0.239590    Biso  1.000000 O
   O2042       1.0     0.611110     0.180560     0.093750    Biso  1.000000 O
   O2043       1.0     0.611110     0.180560     0.572920    Biso  1.000000 O
   O2044       1.0     0.597220     0.194440     0.427080    Biso  1.000000 O
   O2045       1.0     0.597220     0.194440     0.906250    Biso  1.000000 O
   O2046       1.0     0.583330     0.166670     0.760410    Biso  1.000000 O
   Mn680       1.0     0.597220     0.194440     0.166670    Biso  1.000000 Mn
   Ni200       1.0     0.583330     0.166670     0.500000    Biso  1.000000 Ni
   Li143       1.0     0.611110     0.180560     0.833330    Biso  1.000000 Li
   Na1024      1.0     0.583330     0.208330     0.000000    Biso  1.000000 Na
   Na1025      1.0     0.611110     0.222220     0.333330    Biso  1.000000 Na
   Na1026      1.0     0.597220     0.236110     0.666670    Biso  1.000000 Na
   O2047       1.0     0.583330     0.208330     0.239590    Biso  1.000000 O
   O2048       1.0     0.611110     0.222220     0.093750    Biso  1.000000 O
   O2049       1.0     0.611110     0.222220     0.572920    Biso  1.000000 O
   O2050       1.0     0.597220     0.236110     0.427080    Biso  1.000000 O
   O2051       1.0     0.597220     0.236110     0.906250    Biso  1.000000 O
   O2052       1.0     0.583330     0.208330     0.760410    Biso  1.000000 O
   Li144       1.0     0.597220     0.236110     0.166670    Biso  1.000000 Li
   Mn681       1.0     0.583330     0.208330     0.500000    Biso  1.000000 Mn
   Mn682       1.0     0.611110     0.222220     0.833330    Biso  1.000000 Mn
   Na1027      1.0     0.583330     0.250000     0.000000    Biso  1.000000 Na
   Na1028      1.0     0.611110     0.263890     0.333330    Biso  1.000000 Na
   Na1029      1.0     0.597220     0.277780     0.666670    Biso  1.000000 Na
   O2053       1.0     0.583330     0.250000     0.239590    Biso  1.000000 O
   O2054       1.0     0.611110     0.263890     0.093750    Biso  1.000000 O
   O2055       1.0     0.611110     0.263890     0.572920    Biso  1.000000 O
   O2056       1.0     0.597220     0.277780     0.427080    Biso  1.000000 O
   O2057       1.0     0.597220     0.277780     0.906250    Biso  1.000000 O
   O2058       1.0     0.583330     0.250000     0.760410    Biso  1.000000 O
   Mn683       1.0     0.597220     0.277780     0.166670    Biso  1.000000 Mn
   Mn684       1.0     0.583330     0.250000     0.500000    Biso  1.000000 Mn
   Mn685       1.0     0.611110     0.263890     0.833330    Biso  1.000000 Mn
   Na1030      1.0     0.583330     0.291670     0.000000    Biso  1.000000 Na
   Na1031      1.0     0.611110     0.305560     0.333330    Biso  1.000000 Na
   Na1032      1.0     0.597220     0.319440     0.666670    Biso  1.000000 Na
   O2059       1.0     0.583330     0.291670     0.239590    Biso  1.000000 O
   O2060       1.0     0.611110     0.305560     0.093750    Biso  1.000000 O
   O2061       1.0     0.611110     0.305560     0.572920    Biso  1.000000 O
   O2062       1.0     0.597220     0.319440     0.427080    Biso  1.000000 O
   O2063       1.0     0.597220     0.319440     0.906250    Biso  1.000000 O
   O2064       1.0     0.583330     0.291670     0.760410    Biso  1.000000 O
   Mn686       1.0     0.597220     0.319440     0.166670    Biso  1.000000 Mn
   Mn687       1.0     0.583330     0.291670     0.500000    Biso  1.000000 Mn
   Li145       1.0     0.611110     0.305560     0.833330    Biso  1.000000 Li
   Na1033      1.0     0.583330     0.333330     0.000000    Biso  1.000000 Na
   Na1034      1.0     0.611110     0.347220     0.333330    Biso  1.000000 Na
   Na1035      1.0     0.597220     0.361110     0.666670    Biso  1.000000 Na
   O2065       1.0     0.583330     0.333330     0.239590    Biso  1.000000 O
   O2066       1.0     0.611110     0.347220     0.093750    Biso  1.000000 O
   O2067       1.0     0.611110     0.347220     0.572920    Biso  1.000000 O
   O2068       1.0     0.597220     0.361110     0.427080    Biso  1.000000 O
   O2069       1.0     0.597220     0.361110     0.906250    Biso  1.000000 O
   O2070       1.0     0.583330     0.333330     0.760410    Biso  1.000000 O
   Li146       1.0     0.597220     0.361110     0.166670    Biso  1.000000 Li
   Ni201       1.0     0.583330     0.333330     0.500000    Biso  1.000000 Ni
   Mn688       1.0     0.611110     0.347220     0.833330    Biso  1.000000 Mn
   Na1036      1.0     0.583330     0.375000     0.000000    Biso  1.000000 Na
   Na1037      1.0     0.611110     0.388890     0.333330    Biso  1.000000 Na
   Na1038      1.0     0.597220     0.402780     0.666670    Biso  1.000000 Na
   O2071       1.0     0.583330     0.375000     0.239590    Biso  1.000000 O
   O2072       1.0     0.611110     0.388890     0.093750    Biso  1.000000 O
   O2073       1.0     0.611110     0.388890     0.572920    Biso  1.000000 O
   O2074       1.0     0.597220     0.402780     0.427080    Biso  1.000000 O
   O2075       1.0     0.597220     0.402780     0.906250    Biso  1.000000 O
   O2076       1.0     0.583330     0.375000     0.760410    Biso  1.000000 O
   Mn689       1.0     0.597220     0.402780     0.166670    Biso  1.000000 Mn
   Mn690       1.0     0.583330     0.375000     0.500000    Biso  1.000000 Mn
   Mn691       1.0     0.611110     0.388890     0.833330    Biso  1.000000 Mn
   Na1039      1.0     0.583330     0.416670     0.000000    Biso  1.000000 Na
   Na1040      1.0     0.611110     0.430560     0.333330    Biso  1.000000 Na
   Na1041      1.0     0.597220     0.444440     0.666670    Biso  1.000000 Na
   O2077       1.0     0.583330     0.416670     0.239590    Biso  1.000000 O
   O2078       1.0     0.611110     0.430560     0.093750    Biso  1.000000 O
   O2079       1.0     0.611110     0.430560     0.572920    Biso  1.000000 O
   O2080       1.0     0.597220     0.444440     0.427080    Biso  1.000000 O
   O2081       1.0     0.597220     0.444440     0.906250    Biso  1.000000 O
   O2082       1.0     0.583330     0.416670     0.760410    Biso  1.000000 O
   Mn692       1.0     0.597220     0.444440     0.166670    Biso  1.000000 Mn
   Ni202       1.0     0.583330     0.416670     0.500000    Biso  1.000000 Ni
   Ni203       1.0     0.611110     0.430560     0.833330    Biso  1.000000 Ni
   Na1042      1.0     0.583330     0.458330     0.000000    Biso  1.000000 Na
   Na1043      1.0     0.611110     0.472220     0.333330    Biso  1.000000 Na
   Na1044      1.0     0.597220     0.486110     0.666670    Biso  1.000000 Na
   O2083       1.0     0.583330     0.458330     0.239590    Biso  1.000000 O
   O2084       1.0     0.611110     0.472220     0.093750    Biso  1.000000 O
   O2085       1.0     0.611110     0.472220     0.572920    Biso  1.000000 O
   O2086       1.0     0.597220     0.486110     0.427080    Biso  1.000000 O
   O2087       1.0     0.597220     0.486110     0.906250    Biso  1.000000 O
   O2088       1.0     0.583330     0.458330     0.760410    Biso  1.000000 O
   Ni204       1.0     0.597220     0.486110     0.166670    Biso  1.000000 Ni
   Mn693       1.0     0.583330     0.458330     0.500000    Biso  1.000000 Mn
   Mn694       1.0     0.611110     0.472220     0.833330    Biso  1.000000 Mn
   Na1045      1.0     0.583330     0.500000     0.000000    Biso  1.000000 Na
   Na1046      1.0     0.611110     0.513890     0.333330    Biso  1.000000 Na
   Na1047      1.0     0.597220     0.527780     0.666670    Biso  1.000000 Na
   O2089       1.0     0.583330     0.500000     0.239590    Biso  1.000000 O
   O2090       1.0     0.611110     0.513890     0.093750    Biso  1.000000 O
   O2091       1.0     0.611110     0.513890     0.572920    Biso  1.000000 O
   O2092       1.0     0.597220     0.527780     0.427080    Biso  1.000000 O
   O2093       1.0     0.597220     0.527780     0.906250    Biso  1.000000 O
   O2094       1.0     0.583330     0.500000     0.760410    Biso  1.000000 O
   Mn695       1.0     0.597220     0.527780     0.166670    Biso  1.000000 Mn
   Mn696       1.0     0.583330     0.500000     0.500000    Biso  1.000000 Mn
   Mn697       1.0     0.611110     0.513890     0.833330    Biso  1.000000 Mn
   Na1048      1.0     0.583330     0.541670     0.000000    Biso  1.000000 Na
   Na1049      1.0     0.611110     0.555560     0.333330    Biso  1.000000 Na
   Na1050      1.0     0.597220     0.569440     0.666670    Biso  1.000000 Na
   O2095       1.0     0.583330     0.541670     0.239590    Biso  1.000000 O
   O2096       1.0     0.611110     0.555560     0.093750    Biso  1.000000 O
   O2097       1.0     0.611110     0.555560     0.572920    Biso  1.000000 O
   O2098       1.0     0.597220     0.569440     0.427080    Biso  1.000000 O
   O2099       1.0     0.597220     0.569440     0.906250    Biso  1.000000 O
   O2100       1.0     0.583330     0.541670     0.760410    Biso  1.000000 O
   Mn698       1.0     0.597220     0.569440     0.166670    Biso  1.000000 Mn
   Ni205       1.0     0.583330     0.541670     0.500000    Biso  1.000000 Ni
   Ni206       1.0     0.611110     0.555560     0.833330    Biso  1.000000 Ni
   Na1051      1.0     0.583330     0.583330     0.000000    Biso  1.000000 Na
   Na1052      1.0     0.611110     0.597220     0.333330    Biso  1.000000 Na
   Na1053      1.0     0.597220     0.611110     0.666670    Biso  1.000000 Na
   O2101       1.0     0.583330     0.583330     0.239590    Biso  1.000000 O
   O2102       1.0     0.611110     0.597220     0.093750    Biso  1.000000 O
   O2103       1.0     0.611110     0.597220     0.572920    Biso  1.000000 O
   O2104       1.0     0.597220     0.611110     0.427080    Biso  1.000000 O
   O2105       1.0     0.597220     0.611110     0.906250    Biso  1.000000 O
   O2106       1.0     0.583330     0.583330     0.760410    Biso  1.000000 O
   Ni207       1.0     0.597220     0.611110     0.166670    Biso  1.000000 Ni
   Mn699       1.0     0.583330     0.583330     0.500000    Biso  1.000000 Mn
   Mn700       1.0     0.611110     0.597220     0.833330    Biso  1.000000 Mn
   Na1054      1.0     0.583330     0.625000     0.000000    Biso  1.000000 Na
   Na1055      1.0     0.611110     0.638890     0.333330    Biso  1.000000 Na
   Na1056      1.0     0.597220     0.652780     0.666670    Biso  1.000000 Na
   O2107       1.0     0.583330     0.625000     0.239590    Biso  1.000000 O
   O2108       1.0     0.611110     0.638890     0.093750    Biso  1.000000 O
   O2109       1.0     0.611110     0.638890     0.572920    Biso  1.000000 O
   O2110       1.0     0.597220     0.652780     0.427080    Biso  1.000000 O
   O2111       1.0     0.597220     0.652780     0.906250    Biso  1.000000 O
   O2112       1.0     0.583330     0.625000     0.760410    Biso  1.000000 O
   Mn701       1.0     0.597220     0.652780     0.166670    Biso  1.000000 Mn
   Mn702       1.0     0.583330     0.625000     0.500000    Biso  1.000000 Mn
   Mn703       1.0     0.611110     0.638890     0.833330    Biso  1.000000 Mn
   Na1057      1.0     0.583330     0.666670     0.000000    Biso  1.000000 Na
   Na1058      1.0     0.611110     0.680560     0.333330    Biso  1.000000 Na
   Na1059      1.0     0.597220     0.694440     0.666670    Biso  1.000000 Na
   O2113       1.0     0.583330     0.666670     0.239590    Biso  1.000000 O
   O2114       1.0     0.611110     0.680560     0.093750    Biso  1.000000 O
   O2115       1.0     0.611110     0.680560     0.572920    Biso  1.000000 O
   O2116       1.0     0.597220     0.694440     0.427080    Biso  1.000000 O
   O2117       1.0     0.597220     0.694440     0.906250    Biso  1.000000 O
   O2118       1.0     0.583330     0.666670     0.760410    Biso  1.000000 O
   Mn704       1.0     0.597220     0.694440     0.166670    Biso  1.000000 Mn
   Mn705       1.0     0.583330     0.666670     0.500000    Biso  1.000000 Mn
   Ni208       1.0     0.611110     0.680560     0.833330    Biso  1.000000 Ni
   Na1060      1.0     0.583330     0.708330     0.000000    Biso  1.000000 Na
   Na1061      1.0     0.611110     0.722220     0.333330    Biso  1.000000 Na
   Na1062      1.0     0.597220     0.736110     0.666670    Biso  1.000000 Na
   O2119       1.0     0.583330     0.708330     0.239590    Biso  1.000000 O
   O2120       1.0     0.611110     0.722220     0.093750    Biso  1.000000 O
   O2121       1.0     0.611110     0.722220     0.572920    Biso  1.000000 O
   O2122       1.0     0.597220     0.736110     0.427080    Biso  1.000000 O
   O2123       1.0     0.597220     0.736110     0.906250    Biso  1.000000 O
   O2124       1.0     0.583330     0.708330     0.760410    Biso  1.000000 O
   Ni209       1.0     0.597220     0.736110     0.166670    Biso  1.000000 Ni
   Mn706       1.0     0.583330     0.708330     0.500000    Biso  1.000000 Mn
   Mn707       1.0     0.611110     0.722220     0.833330    Biso  1.000000 Mn
   Na1063      1.0     0.583330     0.750000     0.000000    Biso  1.000000 Na
   Na1064      1.0     0.611110     0.763890     0.333330    Biso  1.000000 Na
   Na1065      1.0     0.597220     0.777780     0.666670    Biso  1.000000 Na
   O2125       1.0     0.583330     0.750000     0.239590    Biso  1.000000 O
   O2126       1.0     0.611110     0.763890     0.093750    Biso  1.000000 O
   O2127       1.0     0.611110     0.763890     0.572920    Biso  1.000000 O
   O2128       1.0     0.597220     0.777780     0.427080    Biso  1.000000 O
   O2129       1.0     0.597220     0.777780     0.906250    Biso  1.000000 O
   O2130       1.0     0.583330     0.750000     0.760410    Biso  1.000000 O
   Mn708       1.0     0.597220     0.777780     0.166670    Biso  1.000000 Mn
   Mn709       1.0     0.583330     0.750000     0.500000    Biso  1.000000 Mn
   Mn710       1.0     0.611110     0.763890     0.833330    Biso  1.000000 Mn
   Na1066      1.0     0.583330     0.791670     0.000000    Biso  1.000000 Na
   Na1067      1.0     0.611110     0.805560     0.333330    Biso  1.000000 Na
   Na1068      1.0     0.597220     0.819440     0.666670    Biso  1.000000 Na
   O2131       1.0     0.583330     0.791670     0.239590    Biso  1.000000 O
   O2132       1.0     0.611110     0.805560     0.093750    Biso  1.000000 O
   O2133       1.0     0.611110     0.805560     0.572920    Biso  1.000000 O
   O2134       1.0     0.597220     0.819440     0.427080    Biso  1.000000 O
   O2135       1.0     0.597220     0.819440     0.906250    Biso  1.000000 O
   O2136       1.0     0.583330     0.791670     0.760410    Biso  1.000000 O
   Mn711       1.0     0.597220     0.819440     0.166670    Biso  1.000000 Mn
   Li147       1.0     0.583330     0.791670     0.500000    Biso  1.000000 Li
   Li148       1.0     0.611110     0.805560     0.833330    Biso  1.000000 Li
   Na1069      1.0     0.583330     0.833330     0.000000    Biso  1.000000 Na
   Na1070      1.0     0.611110     0.847220     0.333330    Biso  1.000000 Na
   Na1071      1.0     0.597220     0.861110     0.666670    Biso  1.000000 Na
   O2137       1.0     0.583330     0.833330     0.239590    Biso  1.000000 O
   O2138       1.0     0.611110     0.847220     0.093750    Biso  1.000000 O
   O2139       1.0     0.611110     0.847220     0.572920    Biso  1.000000 O
   O2140       1.0     0.597220     0.861110     0.427080    Biso  1.000000 O
   O2141       1.0     0.597220     0.861110     0.906250    Biso  1.000000 O
   O2142       1.0     0.583330     0.833330     0.760410    Biso  1.000000 O
   Li149       1.0     0.597220     0.861110     0.166670    Biso  1.000000 Li
   Mn712       1.0     0.583330     0.833330     0.500000    Biso  1.000000 Mn
   Mn713       1.0     0.611110     0.847220     0.833330    Biso  1.000000 Mn
   Na1072      1.0     0.583330     0.875000     0.000000    Biso  1.000000 Na
   Na1073      1.0     0.611110     0.888890     0.333330    Biso  1.000000 Na
   Na1074      1.0     0.597220     0.902780     0.666670    Biso  1.000000 Na
   O2143       1.0     0.583330     0.875000     0.239590    Biso  1.000000 O
   O2144       1.0     0.611110     0.888890     0.093750    Biso  1.000000 O
   O2145       1.0     0.611110     0.888890     0.572920    Biso  1.000000 O
   O2146       1.0     0.597220     0.902780     0.427080    Biso  1.000000 O
   O2147       1.0     0.597220     0.902780     0.906250    Biso  1.000000 O
   O2148       1.0     0.583330     0.875000     0.760410    Biso  1.000000 O
   Mn714       1.0     0.597220     0.902780     0.166670    Biso  1.000000 Mn
   Mn715       1.0     0.583330     0.875000     0.500000    Biso  1.000000 Mn
   Mn716       1.0     0.611110     0.888890     0.833330    Biso  1.000000 Mn
   Na1075      1.0     0.583330     0.916670     0.000000    Biso  1.000000 Na
   Na1076      1.0     0.611110     0.930560     0.333330    Biso  1.000000 Na
   Na1077      1.0     0.597220     0.944440     0.666670    Biso  1.000000 Na
   O2149       1.0     0.583330     0.916670     0.239590    Biso  1.000000 O
   O2150       1.0     0.611110     0.930560     0.093750    Biso  1.000000 O
   O2151       1.0     0.611110     0.930560     0.572920    Biso  1.000000 O
   O2152       1.0     0.597220     0.944440     0.427080    Biso  1.000000 O
   O2153       1.0     0.597220     0.944440     0.906250    Biso  1.000000 O
   O2154       1.0     0.583330     0.916670     0.760410    Biso  1.000000 O
   Mn717       1.0     0.597220     0.944440     0.166670    Biso  1.000000 Mn
   Li150       1.0     0.583330     0.916670     0.500000    Biso  1.000000 Li
   Li151       1.0     0.611110     0.930560     0.833330    Biso  1.000000 Li
   Na1078      1.0     0.583330     0.958330     0.000000    Biso  1.000000 Na
   Na1079      1.0     0.611110     0.972220     0.333330    Biso  1.000000 Na
   Na1080      1.0     0.597220     0.986110     0.666670    Biso  1.000000 Na
   O2155       1.0     0.583330     0.958330     0.239590    Biso  1.000000 O
   O2156       1.0     0.611110     0.972220     0.093750    Biso  1.000000 O
   O2157       1.0     0.611110     0.972220     0.572920    Biso  1.000000 O
   O2158       1.0     0.597220     0.986110     0.427080    Biso  1.000000 O
   O2159       1.0     0.597220     0.986110     0.906250    Biso  1.000000 O
   O2160       1.0     0.583330     0.958330     0.760410    Biso  1.000000 O
   Li152       1.0     0.597220     0.986110     0.166670    Biso  1.000000 Li
   Mn718       1.0     0.583330     0.958330     0.500000    Biso  1.000000 Mn
   Mn719       1.0     0.611110     0.972220     0.833330    Biso  1.000000 Mn
   Na1081      1.0     0.625000     0.000000     0.000000    Biso  1.000000 Na
   Na1082      1.0     0.652780     0.013890     0.333330    Biso  1.000000 Na
   Na1083      1.0     0.638890     0.027780     0.666670    Biso  1.000000 Na
   O2161       1.0     0.625000     0.000000     0.239590    Biso  1.000000 O
   O2162       1.0     0.652780     0.013890     0.093750    Biso  1.000000 O
   O2163       1.0     0.652780     0.013890     0.572920    Biso  1.000000 O
   O2164       1.0     0.638890     0.027780     0.427080    Biso  1.000000 O
   O2165       1.0     0.638890     0.027780     0.906250    Biso  1.000000 O
   O2166       1.0     0.625000     0.000000     0.760410    Biso  1.000000 O
   Mn720       1.0     0.638890     0.027780     0.166670    Biso  1.000000 Mn
   Li153       1.0     0.625000     0.000000     0.500000    Biso  1.000000 Li
   Li154       1.0     0.652780     0.013890     0.833330    Biso  1.000000 Li
   Na1084      1.0     0.625000     0.041670     0.000000    Biso  1.000000 Na
   Na1085      1.0     0.652780     0.055560     0.333330    Biso  1.000000 Na
   Na1086      1.0     0.638890     0.069440     0.666670    Biso  1.000000 Na
   O2167       1.0     0.625000     0.041670     0.239590    Biso  1.000000 O
   O2168       1.0     0.652780     0.055560     0.093750    Biso  1.000000 O
   O2169       1.0     0.652780     0.055560     0.572920    Biso  1.000000 O
   O2170       1.0     0.638890     0.069440     0.427080    Biso  1.000000 O
   O2171       1.0     0.638890     0.069440     0.906250    Biso  1.000000 O
   O2172       1.0     0.625000     0.041670     0.760410    Biso  1.000000 O
   Li155       1.0     0.638890     0.069440     0.166670    Biso  1.000000 Li
   Mn721       1.0     0.625000     0.041670     0.500000    Biso  1.000000 Mn
   Mn722       1.0     0.652780     0.055560     0.833330    Biso  1.000000 Mn
   Na1087      1.0     0.625000     0.083330     0.000000    Biso  1.000000 Na
   Na1088      1.0     0.652780     0.097220     0.333330    Biso  1.000000 Na
   Na1089      1.0     0.638890     0.111110     0.666670    Biso  1.000000 Na
   O2173       1.0     0.625000     0.083330     0.239590    Biso  1.000000 O
   O2174       1.0     0.652780     0.097220     0.093750    Biso  1.000000 O
   O2175       1.0     0.652780     0.097220     0.572920    Biso  1.000000 O
   O2176       1.0     0.638890     0.111110     0.427080    Biso  1.000000 O
   O2177       1.0     0.638890     0.111110     0.906250    Biso  1.000000 O
   O2178       1.0     0.625000     0.083330     0.760410    Biso  1.000000 O
   Mn723       1.0     0.638890     0.111110     0.166670    Biso  1.000000 Mn
   Mn724       1.0     0.625000     0.083330     0.500000    Biso  1.000000 Mn
   Mn725       1.0     0.652780     0.097220     0.833330    Biso  1.000000 Mn
   Na1090      1.0     0.625000     0.125000     0.000000    Biso  1.000000 Na
   Na1091      1.0     0.652780     0.138890     0.333330    Biso  1.000000 Na
   Na1092      1.0     0.638890     0.152780     0.666670    Biso  1.000000 Na
   O2179       1.0     0.625000     0.125000     0.239590    Biso  1.000000 O
   O2180       1.0     0.652780     0.138890     0.093750    Biso  1.000000 O
   O2181       1.0     0.652780     0.138890     0.572920    Biso  1.000000 O
   O2182       1.0     0.638890     0.152780     0.427080    Biso  1.000000 O
   O2183       1.0     0.638890     0.152780     0.906250    Biso  1.000000 O
   O2184       1.0     0.625000     0.125000     0.760410    Biso  1.000000 O
   Mn726       1.0     0.638890     0.152780     0.166670    Biso  1.000000 Mn
   Li156       1.0     0.625000     0.125000     0.500000    Biso  1.000000 Li
   Li157       1.0     0.652780     0.138890     0.833330    Biso  1.000000 Li
   Na1093      1.0     0.625000     0.166670     0.000000    Biso  1.000000 Na
   Na1094      1.0     0.652780     0.180560     0.333330    Biso  1.000000 Na
   Na1095      1.0     0.638890     0.194440     0.666670    Biso  1.000000 Na
   O2185       1.0     0.625000     0.166670     0.239590    Biso  1.000000 O
   O2186       1.0     0.652780     0.180560     0.093750    Biso  1.000000 O
   O2187       1.0     0.652780     0.180560     0.572920    Biso  1.000000 O
   O2188       1.0     0.638890     0.194440     0.427080    Biso  1.000000 O
   O2189       1.0     0.638890     0.194440     0.906250    Biso  1.000000 O
   O2190       1.0     0.625000     0.166670     0.760410    Biso  1.000000 O
   Li158       1.0     0.638890     0.194440     0.166670    Biso  1.000000 Li
   Mn727       1.0     0.625000     0.166670     0.500000    Biso  1.000000 Mn
   Mn728       1.0     0.652780     0.180560     0.833330    Biso  1.000000 Mn
   Na1096      1.0     0.625000     0.208330     0.000000    Biso  1.000000 Na
   Na1097      1.0     0.652780     0.222220     0.333330    Biso  1.000000 Na
   Na1098      1.0     0.638890     0.236110     0.666670    Biso  1.000000 Na
   O2191       1.0     0.625000     0.208330     0.239590    Biso  1.000000 O
   O2192       1.0     0.652780     0.222220     0.093750    Biso  1.000000 O
   O2193       1.0     0.652780     0.222220     0.572920    Biso  1.000000 O
   O2194       1.0     0.638890     0.236110     0.427080    Biso  1.000000 O
   O2195       1.0     0.638890     0.236110     0.906250    Biso  1.000000 O
   O2196       1.0     0.625000     0.208330     0.760410    Biso  1.000000 O
   Mn729       1.0     0.638890     0.236110     0.166670    Biso  1.000000 Mn
   Mn730       1.0     0.625000     0.208330     0.500000    Biso  1.000000 Mn
   Mn731       1.0     0.652780     0.222220     0.833330    Biso  1.000000 Mn
   Na1099      1.0     0.625000     0.250000     0.000000    Biso  1.000000 Na
   Na1100      1.0     0.652780     0.263890     0.333330    Biso  1.000000 Na
   Na1101      1.0     0.638890     0.277780     0.666670    Biso  1.000000 Na
   O2197       1.0     0.625000     0.250000     0.239590    Biso  1.000000 O
   O2198       1.0     0.652780     0.263890     0.093750    Biso  1.000000 O
   O2199       1.0     0.652780     0.263890     0.572920    Biso  1.000000 O
   O2200       1.0     0.638890     0.277780     0.427080    Biso  1.000000 O
   O2201       1.0     0.638890     0.277780     0.906250    Biso  1.000000 O
   O2202       1.0     0.625000     0.250000     0.760410    Biso  1.000000 O
   Mn732       1.0     0.638890     0.277780     0.166670    Biso  1.000000 Mn
   Li159       1.0     0.625000     0.250000     0.500000    Biso  1.000000 Li
   Li160       1.0     0.652780     0.263890     0.833330    Biso  1.000000 Li
   Na1102      1.0     0.625000     0.291670     0.000000    Biso  1.000000 Na
   Na1103      1.0     0.652780     0.305560     0.333330    Biso  1.000000 Na
   Na1104      1.0     0.638890     0.319440     0.666670    Biso  1.000000 Na
   O2203       1.0     0.625000     0.291670     0.239590    Biso  1.000000 O
   O2204       1.0     0.652780     0.305560     0.093750    Biso  1.000000 O
   O2205       1.0     0.652780     0.305560     0.572920    Biso  1.000000 O
   O2206       1.0     0.638890     0.319440     0.427080    Biso  1.000000 O
   O2207       1.0     0.638890     0.319440     0.906250    Biso  1.000000 O
   O2208       1.0     0.625000     0.291670     0.760410    Biso  1.000000 O
   Li161       1.0     0.638890     0.319440     0.166670    Biso  1.000000 Li
   Mn733       1.0     0.625000     0.291670     0.500000    Biso  1.000000 Mn
   Mn734       1.0     0.652780     0.305560     0.833330    Biso  1.000000 Mn
   Na1105      1.0     0.625000     0.333330     0.000000    Biso  1.000000 Na
   Na1106      1.0     0.652780     0.347220     0.333330    Biso  1.000000 Na
   Na1107      1.0     0.638890     0.361110     0.666670    Biso  1.000000 Na
   O2209       1.0     0.625000     0.333330     0.239590    Biso  1.000000 O
   O2210       1.0     0.652780     0.347220     0.093750    Biso  1.000000 O
   O2211       1.0     0.652780     0.347220     0.572920    Biso  1.000000 O
   O2212       1.0     0.638890     0.361110     0.427080    Biso  1.000000 O
   O2213       1.0     0.638890     0.361110     0.906250    Biso  1.000000 O
   O2214       1.0     0.625000     0.333330     0.760410    Biso  1.000000 O
   Mn735       1.0     0.638890     0.361110     0.166670    Biso  1.000000 Mn
   Mn736       1.0     0.625000     0.333330     0.500000    Biso  1.000000 Mn
   Mn737       1.0     0.652780     0.347220     0.833330    Biso  1.000000 Mn
   Na1108      1.0     0.625000     0.375000     0.000000    Biso  1.000000 Na
   Na1109      1.0     0.652780     0.388890     0.333330    Biso  1.000000 Na
   Na1110      1.0     0.638890     0.402780     0.666670    Biso  1.000000 Na
   O2215       1.0     0.625000     0.375000     0.239590    Biso  1.000000 O
   O2216       1.0     0.652780     0.388890     0.093750    Biso  1.000000 O
   O2217       1.0     0.652780     0.388890     0.572920    Biso  1.000000 O
   O2218       1.0     0.638890     0.402780     0.427080    Biso  1.000000 O
   O2219       1.0     0.638890     0.402780     0.906250    Biso  1.000000 O
   O2220       1.0     0.625000     0.375000     0.760410    Biso  1.000000 O
   Mn738       1.0     0.638890     0.402780     0.166670    Biso  1.000000 Mn
   Li162       1.0     0.625000     0.375000     0.500000    Biso  1.000000 Li
   Li163       1.0     0.652780     0.388890     0.833330    Biso  1.000000 Li
   Na1111      1.0     0.625000     0.416670     0.000000    Biso  1.000000 Na
   Na1112      1.0     0.652780     0.430560     0.333330    Biso  1.000000 Na
   Na1113      1.0     0.638890     0.444440     0.666670    Biso  1.000000 Na
   O2221       1.0     0.625000     0.416670     0.239590    Biso  1.000000 O
   O2222       1.0     0.652780     0.430560     0.093750    Biso  1.000000 O
   O2223       1.0     0.652780     0.430560     0.572920    Biso  1.000000 O
   O2224       1.0     0.638890     0.444440     0.427080    Biso  1.000000 O
   O2225       1.0     0.638890     0.444440     0.906250    Biso  1.000000 O
   O2226       1.0     0.625000     0.416670     0.760410    Biso  1.000000 O
   Ni210       1.0     0.638890     0.444440     0.166670    Biso  1.000000 Ni
   Mn739       1.0     0.625000     0.416670     0.500000    Biso  1.000000 Mn
   Mn740       1.0     0.652780     0.430560     0.833330    Biso  1.000000 Mn
   Na1114      1.0     0.625000     0.458330     0.000000    Biso  1.000000 Na
   Na1115      1.0     0.652780     0.472220     0.333330    Biso  1.000000 Na
   Na1116      1.0     0.638890     0.486110     0.666670    Biso  1.000000 Na
   O2227       1.0     0.625000     0.458330     0.239590    Biso  1.000000 O
   O2228       1.0     0.652780     0.472220     0.093750    Biso  1.000000 O
   O2229       1.0     0.652780     0.472220     0.572920    Biso  1.000000 O
   O2230       1.0     0.638890     0.486110     0.427080    Biso  1.000000 O
   O2231       1.0     0.638890     0.486110     0.906250    Biso  1.000000 O
   O2232       1.0     0.625000     0.458330     0.760410    Biso  1.000000 O
   Mn741       1.0     0.638890     0.486110     0.166670    Biso  1.000000 Mn
   Mn742       1.0     0.625000     0.458330     0.500000    Biso  1.000000 Mn
   Mn743       1.0     0.652780     0.472220     0.833330    Biso  1.000000 Mn
   Na1117      1.0     0.625000     0.500000     0.000000    Biso  1.000000 Na
   Na1118      1.0     0.652780     0.513890     0.333330    Biso  1.000000 Na
   Na1119      1.0     0.638890     0.527780     0.666670    Biso  1.000000 Na
   O2233       1.0     0.625000     0.500000     0.239590    Biso  1.000000 O
   O2234       1.0     0.652780     0.513890     0.093750    Biso  1.000000 O
   O2235       1.0     0.652780     0.513890     0.572920    Biso  1.000000 O
   O2236       1.0     0.638890     0.527780     0.427080    Biso  1.000000 O
   O2237       1.0     0.638890     0.527780     0.906250    Biso  1.000000 O
   O2238       1.0     0.625000     0.500000     0.760410    Biso  1.000000 O
   Mn744       1.0     0.638890     0.527780     0.166670    Biso  1.000000 Mn
   Ni211       1.0     0.625000     0.500000     0.500000    Biso  1.000000 Ni
   Ni212       1.0     0.652780     0.513890     0.833330    Biso  1.000000 Ni
   Na1120      1.0     0.625000     0.541670     0.000000    Biso  1.000000 Na
   Na1121      1.0     0.652780     0.555560     0.333330    Biso  1.000000 Na
   Na1122      1.0     0.638890     0.569440     0.666670    Biso  1.000000 Na
   O2239       1.0     0.625000     0.541670     0.239590    Biso  1.000000 O
   O2240       1.0     0.652780     0.555560     0.093750    Biso  1.000000 O
   O2241       1.0     0.652780     0.555560     0.572920    Biso  1.000000 O
   O2242       1.0     0.638890     0.569440     0.427080    Biso  1.000000 O
   O2243       1.0     0.638890     0.569440     0.906250    Biso  1.000000 O
   O2244       1.0     0.625000     0.541670     0.760410    Biso  1.000000 O
   Ni213       1.0     0.638890     0.569440     0.166670    Biso  1.000000 Ni
   Mn745       1.0     0.625000     0.541670     0.500000    Biso  1.000000 Mn
   Mn746       1.0     0.652780     0.555560     0.833330    Biso  1.000000 Mn
   Na1123      1.0     0.625000     0.583330     0.000000    Biso  1.000000 Na
   Na1124      1.0     0.652780     0.597220     0.333330    Biso  1.000000 Na
   Na1125      1.0     0.638890     0.611110     0.666670    Biso  1.000000 Na
   O2245       1.0     0.625000     0.583330     0.239590    Biso  1.000000 O
   O2246       1.0     0.652780     0.597220     0.093750    Biso  1.000000 O
   O2247       1.0     0.652780     0.597220     0.572920    Biso  1.000000 O
   O2248       1.0     0.638890     0.611110     0.427080    Biso  1.000000 O
   O2249       1.0     0.638890     0.611110     0.906250    Biso  1.000000 O
   O2250       1.0     0.625000     0.583330     0.760410    Biso  1.000000 O
   Mn747       1.0     0.638890     0.611110     0.166670    Biso  1.000000 Mn
   Mn748       1.0     0.625000     0.583330     0.500000    Biso  1.000000 Mn
   Mn749       1.0     0.652780     0.597220     0.833330    Biso  1.000000 Mn
   Na1126      1.0     0.625000     0.625000     0.000000    Biso  1.000000 Na
   Na1127      1.0     0.652780     0.638890     0.333330    Biso  1.000000 Na
   Na1128      1.0     0.638890     0.652780     0.666670    Biso  1.000000 Na
   O2251       1.0     0.625000     0.625000     0.239590    Biso  1.000000 O
   O2252       1.0     0.652780     0.638890     0.093750    Biso  1.000000 O
   O2253       1.0     0.652780     0.638890     0.572920    Biso  1.000000 O
   O2254       1.0     0.638890     0.652780     0.427080    Biso  1.000000 O
   O2255       1.0     0.638890     0.652780     0.906250    Biso  1.000000 O
   O2256       1.0     0.625000     0.625000     0.760410    Biso  1.000000 O
   Mn750       1.0     0.638890     0.652780     0.166670    Biso  1.000000 Mn
   Ni214       1.0     0.625000     0.625000     0.500000    Biso  1.000000 Ni
   Ni215       1.0     0.652780     0.638890     0.833330    Biso  1.000000 Ni
   Na1129      1.0     0.625000     0.666670     0.000000    Biso  1.000000 Na
   Na1130      1.0     0.652780     0.680560     0.333330    Biso  1.000000 Na
   Na1131      1.0     0.638890     0.694440     0.666670    Biso  1.000000 Na
   O2257       1.0     0.625000     0.666670     0.239590    Biso  1.000000 O
   O2258       1.0     0.652780     0.680560     0.093750    Biso  1.000000 O
   O2259       1.0     0.652780     0.680560     0.572920    Biso  1.000000 O
   O2260       1.0     0.638890     0.694440     0.427080    Biso  1.000000 O
   O2261       1.0     0.638890     0.694440     0.906250    Biso  1.000000 O
   O2262       1.0     0.625000     0.666670     0.760410    Biso  1.000000 O
   Ni216       1.0     0.638890     0.694440     0.166670    Biso  1.000000 Ni
   Mn751       1.0     0.625000     0.666670     0.500000    Biso  1.000000 Mn
   Mn752       1.0     0.652780     0.680560     0.833330    Biso  1.000000 Mn
   Na1132      1.0     0.625000     0.708330     0.000000    Biso  1.000000 Na
   Na1133      1.0     0.652780     0.722220     0.333330    Biso  1.000000 Na
   Na1134      1.0     0.638890     0.736110     0.666670    Biso  1.000000 Na
   O2263       1.0     0.625000     0.708330     0.239590    Biso  1.000000 O
   O2264       1.0     0.652780     0.722220     0.093750    Biso  1.000000 O
   O2265       1.0     0.652780     0.722220     0.572920    Biso  1.000000 O
   O2266       1.0     0.638890     0.736110     0.427080    Biso  1.000000 O
   O2267       1.0     0.638890     0.736110     0.906250    Biso  1.000000 O
   O2268       1.0     0.625000     0.708330     0.760410    Biso  1.000000 O
   Mn753       1.0     0.638890     0.736110     0.166670    Biso  1.000000 Mn
   Mn754       1.0     0.625000     0.708330     0.500000    Biso  1.000000 Mn
   Mn755       1.0     0.652780     0.722220     0.833330    Biso  1.000000 Mn
   Na1135      1.0     0.625000     0.750000     0.000000    Biso  1.000000 Na
   Na1136      1.0     0.652780     0.763890     0.333330    Biso  1.000000 Na
   Na1137      1.0     0.638890     0.777780     0.666670    Biso  1.000000 Na
   O2269       1.0     0.625000     0.750000     0.239590    Biso  1.000000 O
   O2270       1.0     0.652780     0.763890     0.093750    Biso  1.000000 O
   O2271       1.0     0.652780     0.763890     0.572920    Biso  1.000000 O
   O2272       1.0     0.638890     0.777780     0.427080    Biso  1.000000 O
   O2273       1.0     0.638890     0.777780     0.906250    Biso  1.000000 O
   O2274       1.0     0.625000     0.750000     0.760410    Biso  1.000000 O
   Mn756       1.0     0.638890     0.777780     0.166670    Biso  1.000000 Mn
   Ni217       1.0     0.625000     0.750000     0.500000    Biso  1.000000 Ni
   Li164       1.0     0.652780     0.763890     0.833330    Biso  1.000000 Li
   Na1138      1.0     0.625000     0.791670     0.000000    Biso  1.000000 Na
   Na1139      1.0     0.652780     0.805560     0.333330    Biso  1.000000 Na
   Na1140      1.0     0.638890     0.819440     0.666670    Biso  1.000000 Na
   O2275       1.0     0.625000     0.791670     0.239590    Biso  1.000000 O
   O2276       1.0     0.652780     0.805560     0.093750    Biso  1.000000 O
   O2277       1.0     0.652780     0.805560     0.572920    Biso  1.000000 O
   O2278       1.0     0.638890     0.819440     0.427080    Biso  1.000000 O
   O2279       1.0     0.638890     0.819440     0.906250    Biso  1.000000 O
   O2280       1.0     0.625000     0.791670     0.760410    Biso  1.000000 O
   Li165       1.0     0.638890     0.819440     0.166670    Biso  1.000000 Li
   Mn757       1.0     0.625000     0.791670     0.500000    Biso  1.000000 Mn
   Mn758       1.0     0.652780     0.805560     0.833330    Biso  1.000000 Mn
   Na1141      1.0     0.625000     0.833330     0.000000    Biso  1.000000 Na
   Na1142      1.0     0.652780     0.847220     0.333330    Biso  1.000000 Na
   Na1143      1.0     0.638890     0.861110     0.666670    Biso  1.000000 Na
   O2281       1.0     0.625000     0.833330     0.239590    Biso  1.000000 O
   O2282       1.0     0.652780     0.847220     0.093750    Biso  1.000000 O
   O2283       1.0     0.652780     0.847220     0.572920    Biso  1.000000 O
   O2284       1.0     0.638890     0.861110     0.427080    Biso  1.000000 O
   O2285       1.0     0.638890     0.861110     0.906250    Biso  1.000000 O
   O2286       1.0     0.625000     0.833330     0.760410    Biso  1.000000 O
   Mn759       1.0     0.638890     0.861110     0.166670    Biso  1.000000 Mn
   Mn760       1.0     0.625000     0.833330     0.500000    Biso  1.000000 Mn
   Mn761       1.0     0.652780     0.847220     0.833330    Biso  1.000000 Mn
   Na1144      1.0     0.625000     0.875000     0.000000    Biso  1.000000 Na
   Na1145      1.0     0.652780     0.888890     0.333330    Biso  1.000000 Na
   Na1146      1.0     0.638890     0.902780     0.666670    Biso  1.000000 Na
   O2287       1.0     0.625000     0.875000     0.239590    Biso  1.000000 O
   O2288       1.0     0.652780     0.888890     0.093750    Biso  1.000000 O
   O2289       1.0     0.652780     0.888890     0.572920    Biso  1.000000 O
   O2290       1.0     0.638890     0.902780     0.427080    Biso  1.000000 O
   O2291       1.0     0.638890     0.902780     0.906250    Biso  1.000000 O
   O2292       1.0     0.625000     0.875000     0.760410    Biso  1.000000 O
   Mn762       1.0     0.638890     0.902780     0.166670    Biso  1.000000 Mn
   Li166       1.0     0.625000     0.875000     0.500000    Biso  1.000000 Li
   Li167       1.0     0.652780     0.888890     0.833330    Biso  1.000000 Li
   Na1147      1.0     0.625000     0.916670     0.000000    Biso  1.000000 Na
   Na1148      1.0     0.652780     0.930560     0.333330    Biso  1.000000 Na
   Na1149      1.0     0.638890     0.944440     0.666670    Biso  1.000000 Na
   O2293       1.0     0.625000     0.916670     0.239590    Biso  1.000000 O
   O2294       1.0     0.652780     0.930560     0.093750    Biso  1.000000 O
   O2295       1.0     0.652780     0.930560     0.572920    Biso  1.000000 O
   O2296       1.0     0.638890     0.944440     0.427080    Biso  1.000000 O
   O2297       1.0     0.638890     0.944440     0.906250    Biso  1.000000 O
   O2298       1.0     0.625000     0.916670     0.760410    Biso  1.000000 O
   Li168       1.0     0.638890     0.944440     0.166670    Biso  1.000000 Li
   Mn763       1.0     0.625000     0.916670     0.500000    Biso  1.000000 Mn
   Mn764       1.0     0.652780     0.930560     0.833330    Biso  1.000000 Mn
   Na1150      1.0     0.625000     0.958330     0.000000    Biso  1.000000 Na
   Na1151      1.0     0.652780     0.972220     0.333330    Biso  1.000000 Na
   Na1152      1.0     0.638890     0.986110     0.666670    Biso  1.000000 Na
   O2299       1.0     0.625000     0.958330     0.239590    Biso  1.000000 O
   O2300       1.0     0.652780     0.972220     0.093750    Biso  1.000000 O
   O2301       1.0     0.652780     0.972220     0.572920    Biso  1.000000 O
   O2302       1.0     0.638890     0.986110     0.427080    Biso  1.000000 O
   O2303       1.0     0.638890     0.986110     0.906250    Biso  1.000000 O
   O2304       1.0     0.625000     0.958330     0.760410    Biso  1.000000 O
   Mn765       1.0     0.638890     0.986110     0.166670    Biso  1.000000 Mn
   Mn766       1.0     0.625000     0.958330     0.500000    Biso  1.000000 Mn
   Mn767       1.0     0.652780     0.972220     0.833330    Biso  1.000000 Mn
   Na1153      1.0     0.666670     0.000000     0.000000    Biso  1.000000 Na
   Na1154      1.0     0.694440     0.013890     0.333330    Biso  1.000000 Na
   Na1155      1.0     0.680560     0.027780     0.666670    Biso  1.000000 Na
   O2305       1.0     0.666670     0.000000     0.239590    Biso  1.000000 O
   O2306       1.0     0.694440     0.013890     0.093750    Biso  1.000000 O
   O2307       1.0     0.694440     0.013890     0.572920    Biso  1.000000 O
   O2308       1.0     0.680560     0.027780     0.427080    Biso  1.000000 O
   O2309       1.0     0.680560     0.027780     0.906250    Biso  1.000000 O
   O2310       1.0     0.666670     0.000000     0.760410    Biso  1.000000 O
   Li169       1.0     0.680560     0.027780     0.166670    Biso  1.000000 Li
   Mn768       1.0     0.666670     0.000000     0.500000    Biso  1.000000 Mn
   Mn769       1.0     0.694440     0.013890     0.833330    Biso  1.000000 Mn
   Na1156      1.0     0.666670     0.041670     0.000000    Biso  1.000000 Na
   Na1157      1.0     0.694440     0.055560     0.333330    Biso  1.000000 Na
   Na1158      1.0     0.680560     0.069440     0.666670    Biso  1.000000 Na
   O2311       1.0     0.666670     0.041670     0.239590    Biso  1.000000 O
   O2312       1.0     0.694440     0.055560     0.093750    Biso  1.000000 O
   O2313       1.0     0.694440     0.055560     0.572920    Biso  1.000000 O
   O2314       1.0     0.680560     0.069440     0.427080    Biso  1.000000 O
   O2315       1.0     0.680560     0.069440     0.906250    Biso  1.000000 O
   O2316       1.0     0.666670     0.041670     0.760410    Biso  1.000000 O
   Mn770       1.0     0.680560     0.069440     0.166670    Biso  1.000000 Mn
   Mn771       1.0     0.666670     0.041670     0.500000    Biso  1.000000 Mn
   Mn772       1.0     0.694440     0.055560     0.833330    Biso  1.000000 Mn
   Na1159      1.0     0.666670     0.083330     0.000000    Biso  1.000000 Na
   Na1160      1.0     0.694440     0.097220     0.333330    Biso  1.000000 Na
   Na1161      1.0     0.680560     0.111110     0.666670    Biso  1.000000 Na
   O2317       1.0     0.666670     0.083330     0.239590    Biso  1.000000 O
   O2318       1.0     0.694440     0.097220     0.093750    Biso  1.000000 O
   O2319       1.0     0.694440     0.097220     0.572920    Biso  1.000000 O
   O2320       1.0     0.680560     0.111110     0.427080    Biso  1.000000 O
   O2321       1.0     0.680560     0.111110     0.906250    Biso  1.000000 O
   O2322       1.0     0.666670     0.083330     0.760410    Biso  1.000000 O
   Mn773       1.0     0.680560     0.111110     0.166670    Biso  1.000000 Mn
   Li170       1.0     0.666670     0.083330     0.500000    Biso  1.000000 Li
   Li171       1.0     0.694440     0.097220     0.833330    Biso  1.000000 Li
   Na1162      1.0     0.666670     0.125000     0.000000    Biso  1.000000 Na
   Na1163      1.0     0.694440     0.138890     0.333330    Biso  1.000000 Na
   Na1164      1.0     0.680560     0.152780     0.666670    Biso  1.000000 Na
   O2323       1.0     0.666670     0.125000     0.239590    Biso  1.000000 O
   O2324       1.0     0.694440     0.138890     0.093750    Biso  1.000000 O
   O2325       1.0     0.694440     0.138890     0.572920    Biso  1.000000 O
   O2326       1.0     0.680560     0.152780     0.427080    Biso  1.000000 O
   O2327       1.0     0.680560     0.152780     0.906250    Biso  1.000000 O
   O2328       1.0     0.666670     0.125000     0.760410    Biso  1.000000 O
   Li172       1.0     0.680560     0.152780     0.166670    Biso  1.000000 Li
   Mn774       1.0     0.666670     0.125000     0.500000    Biso  1.000000 Mn
   Mn775       1.0     0.694440     0.138890     0.833330    Biso  1.000000 Mn
   Na1165      1.0     0.666670     0.166670     0.000000    Biso  1.000000 Na
   Na1166      1.0     0.694440     0.180560     0.333330    Biso  1.000000 Na
   Na1167      1.0     0.680560     0.194440     0.666670    Biso  1.000000 Na
   O2329       1.0     0.666670     0.166670     0.239590    Biso  1.000000 O
   O2330       1.0     0.694440     0.180560     0.093750    Biso  1.000000 O
   O2331       1.0     0.694440     0.180560     0.572920    Biso  1.000000 O
   O2332       1.0     0.680560     0.194440     0.427080    Biso  1.000000 O
   O2333       1.0     0.680560     0.194440     0.906250    Biso  1.000000 O
   O2334       1.0     0.666670     0.166670     0.760410    Biso  1.000000 O
   Mn776       1.0     0.680560     0.194440     0.166670    Biso  1.000000 Mn
   Mn777       1.0     0.666670     0.166670     0.500000    Biso  1.000000 Mn
   Mn778       1.0     0.694440     0.180560     0.833330    Biso  1.000000 Mn
   Na1168      1.0     0.666670     0.208330     0.000000    Biso  1.000000 Na
   Na1169      1.0     0.694440     0.222220     0.333330    Biso  1.000000 Na
   Na1170      1.0     0.680560     0.236110     0.666670    Biso  1.000000 Na
   O2335       1.0     0.666670     0.208330     0.239590    Biso  1.000000 O
   O2336       1.0     0.694440     0.222220     0.093750    Biso  1.000000 O
   O2337       1.0     0.694440     0.222220     0.572920    Biso  1.000000 O
   O2338       1.0     0.680560     0.236110     0.427080    Biso  1.000000 O
   O2339       1.0     0.680560     0.236110     0.906250    Biso  1.000000 O
   O2340       1.0     0.666670     0.208330     0.760410    Biso  1.000000 O
   Mn779       1.0     0.680560     0.236110     0.166670    Biso  1.000000 Mn
   Li173       1.0     0.666670     0.208330     0.500000    Biso  1.000000 Li
   Li174       1.0     0.694440     0.222220     0.833330    Biso  1.000000 Li
   Na1171      1.0     0.666670     0.250000     0.000000    Biso  1.000000 Na
   Na1172      1.0     0.694440     0.263890     0.333330    Biso  1.000000 Na
   Na1173      1.0     0.680560     0.277780     0.666670    Biso  1.000000 Na
   O2341       1.0     0.666670     0.250000     0.239590    Biso  1.000000 O
   O2342       1.0     0.694440     0.263890     0.093750    Biso  1.000000 O
   O2343       1.0     0.694440     0.263890     0.572920    Biso  1.000000 O
   O2344       1.0     0.680560     0.277780     0.427080    Biso  1.000000 O
   O2345       1.0     0.680560     0.277780     0.906250    Biso  1.000000 O
   O2346       1.0     0.666670     0.250000     0.760410    Biso  1.000000 O
   Li175       1.0     0.680560     0.277780     0.166670    Biso  1.000000 Li
   Mn780       1.0     0.666670     0.250000     0.500000    Biso  1.000000 Mn
   Mn781       1.0     0.694440     0.263890     0.833330    Biso  1.000000 Mn
   Na1174      1.0     0.666670     0.291670     0.000000    Biso  1.000000 Na
   Na1175      1.0     0.694440     0.305560     0.333330    Biso  1.000000 Na
   Na1176      1.0     0.680560     0.319440     0.666670    Biso  1.000000 Na
   O2347       1.0     0.666670     0.291670     0.239590    Biso  1.000000 O
   O2348       1.0     0.694440     0.305560     0.093750    Biso  1.000000 O
   O2349       1.0     0.694440     0.305560     0.572920    Biso  1.000000 O
   O2350       1.0     0.680560     0.319440     0.427080    Biso  1.000000 O
   O2351       1.0     0.680560     0.319440     0.906250    Biso  1.000000 O
   O2352       1.0     0.666670     0.291670     0.760410    Biso  1.000000 O
   Mn782       1.0     0.680560     0.319440     0.166670    Biso  1.000000 Mn
   Mn783       1.0     0.666670     0.291670     0.500000    Biso  1.000000 Mn
   Mn784       1.0     0.694440     0.305560     0.833330    Biso  1.000000 Mn
   Na1177      1.0     0.666670     0.333330     0.000000    Biso  1.000000 Na
   Na1178      1.0     0.694440     0.347220     0.333330    Biso  1.000000 Na
   Na1179      1.0     0.680560     0.361110     0.666670    Biso  1.000000 Na
   O2353       1.0     0.666670     0.333330     0.239590    Biso  1.000000 O
   O2354       1.0     0.694440     0.347220     0.093750    Biso  1.000000 O
   O2355       1.0     0.694440     0.347220     0.572920    Biso  1.000000 O
   O2356       1.0     0.680560     0.361110     0.427080    Biso  1.000000 O
   O2357       1.0     0.680560     0.361110     0.906250    Biso  1.000000 O
   O2358       1.0     0.666670     0.333330     0.760410    Biso  1.000000 O
   Mn785       1.0     0.680560     0.361110     0.166670    Biso  1.000000 Mn
   Li176       1.0     0.666670     0.333330     0.500000    Biso  1.000000 Li
   Li177       1.0     0.694440     0.347220     0.833330    Biso  1.000000 Li
   Na1180      1.0     0.666670     0.375000     0.000000    Biso  1.000000 Na
   Na1181      1.0     0.694440     0.388890     0.333330    Biso  1.000000 Na
   Na1182      1.0     0.680560     0.402780     0.666670    Biso  1.000000 Na
   O2359       1.0     0.666670     0.375000     0.239590    Biso  1.000000 O
   O2360       1.0     0.694440     0.388890     0.093750    Biso  1.000000 O
   O2361       1.0     0.694440     0.388890     0.572920    Biso  1.000000 O
   O2362       1.0     0.680560     0.402780     0.427080    Biso  1.000000 O
   O2363       1.0     0.680560     0.402780     0.906250    Biso  1.000000 O
   O2364       1.0     0.666670     0.375000     0.760410    Biso  1.000000 O
   Li178       1.0     0.680560     0.402780     0.166670    Biso  1.000000 Li
   Mn786       1.0     0.666670     0.375000     0.500000    Biso  1.000000 Mn
   Mn787       1.0     0.694440     0.388890     0.833330    Biso  1.000000 Mn
   Na1183      1.0     0.666670     0.416670     0.000000    Biso  1.000000 Na
   Na1184      1.0     0.694440     0.430560     0.333330    Biso  1.000000 Na
   Na1185      1.0     0.680560     0.444440     0.666670    Biso  1.000000 Na
   O2365       1.0     0.666670     0.416670     0.239590    Biso  1.000000 O
   O2366       1.0     0.694440     0.430560     0.093750    Biso  1.000000 O
   O2367       1.0     0.694440     0.430560     0.572920    Biso  1.000000 O
   O2368       1.0     0.680560     0.444440     0.427080    Biso  1.000000 O
   O2369       1.0     0.680560     0.444440     0.906250    Biso  1.000000 O
   O2370       1.0     0.666670     0.416670     0.760410    Biso  1.000000 O
   Mn788       1.0     0.680560     0.444440     0.166670    Biso  1.000000 Mn
   Mn789       1.0     0.666670     0.416670     0.500000    Biso  1.000000 Mn
   Mn790       1.0     0.694440     0.430560     0.833330    Biso  1.000000 Mn
   Na1186      1.0     0.666670     0.458330     0.000000    Biso  1.000000 Na
   Na1187      1.0     0.694440     0.472220     0.333330    Biso  1.000000 Na
   Na1188      1.0     0.680560     0.486110     0.666670    Biso  1.000000 Na
   O2371       1.0     0.666670     0.458330     0.239590    Biso  1.000000 O
   O2372       1.0     0.694440     0.472220     0.093750    Biso  1.000000 O
   O2373       1.0     0.694440     0.472220     0.572920    Biso  1.000000 O
   O2374       1.0     0.680560     0.486110     0.427080    Biso  1.000000 O
   O2375       1.0     0.680560     0.486110     0.906250    Biso  1.000000 O
   O2376       1.0     0.666670     0.458330     0.760410    Biso  1.000000 O
   Ni218       1.0     0.680560     0.486110     0.166670    Biso  1.000000 Ni
   Ni219       1.0     0.666670     0.458330     0.500000    Biso  1.000000 Ni
   Li179       1.0     0.694440     0.472220     0.833330    Biso  1.000000 Li
   Na1189      1.0     0.666670     0.500000     0.000000    Biso  1.000000 Na
   Na1190      1.0     0.694440     0.513890     0.333330    Biso  1.000000 Na
   Na1191      1.0     0.680560     0.527780     0.666670    Biso  1.000000 Na
   O2377       1.0     0.666670     0.500000     0.239590    Biso  1.000000 O
   O2378       1.0     0.694440     0.513890     0.093750    Biso  1.000000 O
   O2379       1.0     0.694440     0.513890     0.572920    Biso  1.000000 O
   O2380       1.0     0.680560     0.527780     0.427080    Biso  1.000000 O
   O2381       1.0     0.680560     0.527780     0.906250    Biso  1.000000 O
   O2382       1.0     0.666670     0.500000     0.760410    Biso  1.000000 O
   Ni220       1.0     0.680560     0.527780     0.166670    Biso  1.000000 Ni
   Mn791       1.0     0.666670     0.500000     0.500000    Biso  1.000000 Mn
   Mn792       1.0     0.694440     0.513890     0.833330    Biso  1.000000 Mn
   Na1192      1.0     0.666670     0.541670     0.000000    Biso  1.000000 Na
   Na1193      1.0     0.694440     0.555560     0.333330    Biso  1.000000 Na
   Na1194      1.0     0.680560     0.569440     0.666670    Biso  1.000000 Na
   O2383       1.0     0.666670     0.541670     0.239590    Biso  1.000000 O
   O2384       1.0     0.694440     0.555560     0.093750    Biso  1.000000 O
   O2385       1.0     0.694440     0.555560     0.572920    Biso  1.000000 O
   O2386       1.0     0.680560     0.569440     0.427080    Biso  1.000000 O
   O2387       1.0     0.680560     0.569440     0.906250    Biso  1.000000 O
   O2388       1.0     0.666670     0.541670     0.760410    Biso  1.000000 O
   Mn793       1.0     0.680560     0.569440     0.166670    Biso  1.000000 Mn
   Mn794       1.0     0.666670     0.541670     0.500000    Biso  1.000000 Mn
   Mn795       1.0     0.694440     0.555560     0.833330    Biso  1.000000 Mn
   Na1195      1.0     0.666670     0.583330     0.000000    Biso  1.000000 Na
   Na1196      1.0     0.694440     0.597220     0.333330    Biso  1.000000 Na
   Na1197      1.0     0.680560     0.611110     0.666670    Biso  1.000000 Na
   O2389       1.0     0.666670     0.583330     0.239590    Biso  1.000000 O
   O2390       1.0     0.694440     0.597220     0.093750    Biso  1.000000 O
   O2391       1.0     0.694440     0.597220     0.572920    Biso  1.000000 O
   O2392       1.0     0.680560     0.611110     0.427080    Biso  1.000000 O
   O2393       1.0     0.680560     0.611110     0.906250    Biso  1.000000 O
   O2394       1.0     0.666670     0.583330     0.760410    Biso  1.000000 O
   Mn796       1.0     0.680560     0.611110     0.166670    Biso  1.000000 Mn
   Ni221       1.0     0.666670     0.583330     0.500000    Biso  1.000000 Ni
   Ni222       1.0     0.694440     0.597220     0.833330    Biso  1.000000 Ni
   Na1198      1.0     0.666670     0.625000     0.000000    Biso  1.000000 Na
   Na1199      1.0     0.694440     0.638890     0.333330    Biso  1.000000 Na
   Na1200      1.0     0.680560     0.652780     0.666670    Biso  1.000000 Na
   O2395       1.0     0.666670     0.625000     0.239590    Biso  1.000000 O
   O2396       1.0     0.694440     0.638890     0.093750    Biso  1.000000 O
   O2397       1.0     0.694440     0.638890     0.572920    Biso  1.000000 O
   O2398       1.0     0.680560     0.652780     0.427080    Biso  1.000000 O
   O2399       1.0     0.680560     0.652780     0.906250    Biso  1.000000 O
   O2400       1.0     0.666670     0.625000     0.760410    Biso  1.000000 O
   Ni223       1.0     0.680560     0.652780     0.166670    Biso  1.000000 Ni
   Mn797       1.0     0.666670     0.625000     0.500000    Biso  1.000000 Mn
   Mn798       1.0     0.694440     0.638890     0.833330    Biso  1.000000 Mn
   Na1201      1.0     0.666670     0.666670     0.000000    Biso  1.000000 Na
   Na1202      1.0     0.694440     0.680560     0.333330    Biso  1.000000 Na
   Na1203      1.0     0.680560     0.694440     0.666670    Biso  1.000000 Na
   O2401       1.0     0.666670     0.666670     0.239590    Biso  1.000000 O
   O2402       1.0     0.694440     0.680560     0.093750    Biso  1.000000 O
   O2403       1.0     0.694440     0.680560     0.572920    Biso  1.000000 O
   O2404       1.0     0.680560     0.694440     0.427080    Biso  1.000000 O
   O2405       1.0     0.680560     0.694440     0.906250    Biso  1.000000 O
   O2406       1.0     0.666670     0.666670     0.760410    Biso  1.000000 O
   Mn799       1.0     0.680560     0.694440     0.166670    Biso  1.000000 Mn
   Mn800       1.0     0.666670     0.666670     0.500000    Biso  1.000000 Mn
   Mn801       1.0     0.694440     0.680560     0.833330    Biso  1.000000 Mn
   Na1204      1.0     0.666670     0.708330     0.000000    Biso  1.000000 Na
   Na1205      1.0     0.694440     0.722220     0.333330    Biso  1.000000 Na
   Na1206      1.0     0.680560     0.736110     0.666670    Biso  1.000000 Na
   O2407       1.0     0.666670     0.708330     0.239590    Biso  1.000000 O
   O2408       1.0     0.694440     0.722220     0.093750    Biso  1.000000 O
   O2409       1.0     0.694440     0.722220     0.572920    Biso  1.000000 O
   O2410       1.0     0.680560     0.736110     0.427080    Biso  1.000000 O
   O2411       1.0     0.680560     0.736110     0.906250    Biso  1.000000 O
   O2412       1.0     0.666670     0.708330     0.760410    Biso  1.000000 O
   Mn802       1.0     0.680560     0.736110     0.166670    Biso  1.000000 Mn
   Ni224       1.0     0.666670     0.708330     0.500000    Biso  1.000000 Ni
   Ni225       1.0     0.694440     0.722220     0.833330    Biso  1.000000 Ni
   Na1207      1.0     0.666670     0.750000     0.000000    Biso  1.000000 Na
   Na1208      1.0     0.694440     0.763890     0.333330    Biso  1.000000 Na
   Na1209      1.0     0.680560     0.777780     0.666670    Biso  1.000000 Na
   O2413       1.0     0.666670     0.750000     0.239590    Biso  1.000000 O
   O2414       1.0     0.694440     0.763890     0.093750    Biso  1.000000 O
   O2415       1.0     0.694440     0.763890     0.572920    Biso  1.000000 O
   O2416       1.0     0.680560     0.777780     0.427080    Biso  1.000000 O
   O2417       1.0     0.680560     0.777780     0.906250    Biso  1.000000 O
   O2418       1.0     0.666670     0.750000     0.760410    Biso  1.000000 O
   Li180       1.0     0.680560     0.777780     0.166670    Biso  1.000000 Li
   Mn803       1.0     0.666670     0.750000     0.500000    Biso  1.000000 Mn
   Mn804       1.0     0.694440     0.763890     0.833330    Biso  1.000000 Mn
   Na1210      1.0     0.666670     0.791670     0.000000    Biso  1.000000 Na
   Na1211      1.0     0.694440     0.805560     0.333330    Biso  1.000000 Na
   Na1212      1.0     0.680560     0.819440     0.666670    Biso  1.000000 Na
   O2419       1.0     0.666670     0.791670     0.239590    Biso  1.000000 O
   O2420       1.0     0.694440     0.805560     0.093750    Biso  1.000000 O
   O2421       1.0     0.694440     0.805560     0.572920    Biso  1.000000 O
   O2422       1.0     0.680560     0.819440     0.427080    Biso  1.000000 O
   O2423       1.0     0.680560     0.819440     0.906250    Biso  1.000000 O
   O2424       1.0     0.666670     0.791670     0.760410    Biso  1.000000 O
   Mn805       1.0     0.680560     0.819440     0.166670    Biso  1.000000 Mn
   Mn806       1.0     0.666670     0.791670     0.500000    Biso  1.000000 Mn
   Mn807       1.0     0.694440     0.805560     0.833330    Biso  1.000000 Mn
   Na1213      1.0     0.666670     0.833330     0.000000    Biso  1.000000 Na
   Na1214      1.0     0.694440     0.847220     0.333330    Biso  1.000000 Na
   Na1215      1.0     0.680560     0.861110     0.666670    Biso  1.000000 Na
   O2425       1.0     0.666670     0.833330     0.239590    Biso  1.000000 O
   O2426       1.0     0.694440     0.847220     0.093750    Biso  1.000000 O
   O2427       1.0     0.694440     0.847220     0.572920    Biso  1.000000 O
   O2428       1.0     0.680560     0.861110     0.427080    Biso  1.000000 O
   O2429       1.0     0.680560     0.861110     0.906250    Biso  1.000000 O
   O2430       1.0     0.666670     0.833330     0.760410    Biso  1.000000 O
   Mn808       1.0     0.680560     0.861110     0.166670    Biso  1.000000 Mn
   Li181       1.0     0.666670     0.833330     0.500000    Biso  1.000000 Li
   Li182       1.0     0.694440     0.847220     0.833330    Biso  1.000000 Li
   Na1216      1.0     0.666670     0.875000     0.000000    Biso  1.000000 Na
   Na1217      1.0     0.694440     0.888890     0.333330    Biso  1.000000 Na
   Na1218      1.0     0.680560     0.902780     0.666670    Biso  1.000000 Na
   O2431       1.0     0.666670     0.875000     0.239590    Biso  1.000000 O
   O2432       1.0     0.694440     0.888890     0.093750    Biso  1.000000 O
   O2433       1.0     0.694440     0.888890     0.572920    Biso  1.000000 O
   O2434       1.0     0.680560     0.902780     0.427080    Biso  1.000000 O
   O2435       1.0     0.680560     0.902780     0.906250    Biso  1.000000 O
   O2436       1.0     0.666670     0.875000     0.760410    Biso  1.000000 O
   Li183       1.0     0.680560     0.902780     0.166670    Biso  1.000000 Li
   Mn809       1.0     0.666670     0.875000     0.500000    Biso  1.000000 Mn
   Mn810       1.0     0.694440     0.888890     0.833330    Biso  1.000000 Mn
   Na1219      1.0     0.666670     0.916670     0.000000    Biso  1.000000 Na
   Na1220      1.0     0.694440     0.930560     0.333330    Biso  1.000000 Na
   Na1221      1.0     0.680560     0.944440     0.666670    Biso  1.000000 Na
   O2437       1.0     0.666670     0.916670     0.239590    Biso  1.000000 O
   O2438       1.0     0.694440     0.930560     0.093750    Biso  1.000000 O
   O2439       1.0     0.694440     0.930560     0.572920    Biso  1.000000 O
   O2440       1.0     0.680560     0.944440     0.427080    Biso  1.000000 O
   O2441       1.0     0.680560     0.944440     0.906250    Biso  1.000000 O
   O2442       1.0     0.666670     0.916670     0.760410    Biso  1.000000 O
   Mn811       1.0     0.680560     0.944440     0.166670    Biso  1.000000 Mn
   Mn812       1.0     0.666670     0.916670     0.500000    Biso  1.000000 Mn
   Mn813       1.0     0.694440     0.930560     0.833330    Biso  1.000000 Mn
   Na1222      1.0     0.666670     0.958330     0.000000    Biso  1.000000 Na
   Na1223      1.0     0.694440     0.972220     0.333330    Biso  1.000000 Na
   Na1224      1.0     0.680560     0.986110     0.666670    Biso  1.000000 Na
   O2443       1.0     0.666670     0.958330     0.239590    Biso  1.000000 O
   O2444       1.0     0.694440     0.972220     0.093750    Biso  1.000000 O
   O2445       1.0     0.694440     0.972220     0.572920    Biso  1.000000 O
   O2446       1.0     0.680560     0.986110     0.427080    Biso  1.000000 O
   O2447       1.0     0.680560     0.986110     0.906250    Biso  1.000000 O
   O2448       1.0     0.666670     0.958330     0.760410    Biso  1.000000 O
   Mn814       1.0     0.680560     0.986110     0.166670    Biso  1.000000 Mn
   Li184       1.0     0.666670     0.958330     0.500000    Biso  1.000000 Li
   Li185       1.0     0.694440     0.972220     0.833330    Biso  1.000000 Li
   Na1225      1.0     0.708330     0.000000     0.000000    Biso  1.000000 Na
   Na1226      1.0     0.736110     0.013890     0.333330    Biso  1.000000 Na
   Na1227      1.0     0.722220     0.027780     0.666670    Biso  1.000000 Na
   O2449       1.0     0.708330     0.000000     0.239590    Biso  1.000000 O
   O2450       1.0     0.736110     0.013890     0.093750    Biso  1.000000 O
   O2451       1.0     0.736110     0.013890     0.572920    Biso  1.000000 O
   O2452       1.0     0.722220     0.027780     0.427080    Biso  1.000000 O
   O2453       1.0     0.722220     0.027780     0.906250    Biso  1.000000 O
   O2454       1.0     0.708330     0.000000     0.760410    Biso  1.000000 O
   Mn815       1.0     0.722220     0.027780     0.166670    Biso  1.000000 Mn
   Mn816       1.0     0.708330     0.000000     0.500000    Biso  1.000000 Mn
   Mn817       1.0     0.736110     0.013890     0.833330    Biso  1.000000 Mn
   Na1228      1.0     0.708330     0.041670     0.000000    Biso  1.000000 Na
   Na1229      1.0     0.736110     0.055560     0.333330    Biso  1.000000 Na
   Na1230      1.0     0.722220     0.069440     0.666670    Biso  1.000000 Na
   O2455       1.0     0.708330     0.041670     0.239590    Biso  1.000000 O
   O2456       1.0     0.736110     0.055560     0.093750    Biso  1.000000 O
   O2457       1.0     0.736110     0.055560     0.572920    Biso  1.000000 O
   O2458       1.0     0.722220     0.069440     0.427080    Biso  1.000000 O
   O2459       1.0     0.722220     0.069440     0.906250    Biso  1.000000 O
   O2460       1.0     0.708330     0.041670     0.760410    Biso  1.000000 O
   Mn818       1.0     0.722220     0.069440     0.166670    Biso  1.000000 Mn
   Li186       1.0     0.708330     0.041670     0.500000    Biso  1.000000 Li
   Li187       1.0     0.736110     0.055560     0.833330    Biso  1.000000 Li
   Na1231      1.0     0.708330     0.083330     0.000000    Biso  1.000000 Na
   Na1232      1.0     0.736110     0.097220     0.333330    Biso  1.000000 Na
   Na1233      1.0     0.722220     0.111110     0.666670    Biso  1.000000 Na
   O2461       1.0     0.708330     0.083330     0.239590    Biso  1.000000 O
   O2462       1.0     0.736110     0.097220     0.093750    Biso  1.000000 O
   O2463       1.0     0.736110     0.097220     0.572920    Biso  1.000000 O
   O2464       1.0     0.722220     0.111110     0.427080    Biso  1.000000 O
   O2465       1.0     0.722220     0.111110     0.906250    Biso  1.000000 O
   O2466       1.0     0.708330     0.083330     0.760410    Biso  1.000000 O
   Li188       1.0     0.722220     0.111110     0.166670    Biso  1.000000 Li
   Mn819       1.0     0.708330     0.083330     0.500000    Biso  1.000000 Mn
   Mn820       1.0     0.736110     0.097220     0.833330    Biso  1.000000 Mn
   Na1234      1.0     0.708330     0.125000     0.000000    Biso  1.000000 Na
   Na1235      1.0     0.736110     0.138890     0.333330    Biso  1.000000 Na
   Na1236      1.0     0.722220     0.152780     0.666670    Biso  1.000000 Na
   O2467       1.0     0.708330     0.125000     0.239590    Biso  1.000000 O
   O2468       1.0     0.736110     0.138890     0.093750    Biso  1.000000 O
   O2469       1.0     0.736110     0.138890     0.572920    Biso  1.000000 O
   O2470       1.0     0.722220     0.152780     0.427080    Biso  1.000000 O
   O2471       1.0     0.722220     0.152780     0.906250    Biso  1.000000 O
   O2472       1.0     0.708330     0.125000     0.760410    Biso  1.000000 O
   Mn821       1.0     0.722220     0.152780     0.166670    Biso  1.000000 Mn
   Mn822       1.0     0.708330     0.125000     0.500000    Biso  1.000000 Mn
   Mn823       1.0     0.736110     0.138890     0.833330    Biso  1.000000 Mn
   Na1237      1.0     0.708330     0.166670     0.000000    Biso  1.000000 Na
   Na1238      1.0     0.736110     0.180560     0.333330    Biso  1.000000 Na
   Na1239      1.0     0.722220     0.194440     0.666670    Biso  1.000000 Na
   O2473       1.0     0.708330     0.166670     0.239590    Biso  1.000000 O
   O2474       1.0     0.736110     0.180560     0.093750    Biso  1.000000 O
   O2475       1.0     0.736110     0.180560     0.572920    Biso  1.000000 O
   O2476       1.0     0.722220     0.194440     0.427080    Biso  1.000000 O
   O2477       1.0     0.722220     0.194440     0.906250    Biso  1.000000 O
   O2478       1.0     0.708330     0.166670     0.760410    Biso  1.000000 O
   Mn824       1.0     0.722220     0.194440     0.166670    Biso  1.000000 Mn
   Li189       1.0     0.708330     0.166670     0.500000    Biso  1.000000 Li
   Li190       1.0     0.736110     0.180560     0.833330    Biso  1.000000 Li
   Na1240      1.0     0.708330     0.208330     0.000000    Biso  1.000000 Na
   Na1241      1.0     0.736110     0.222220     0.333330    Biso  1.000000 Na
   Na1242      1.0     0.722220     0.236110     0.666670    Biso  1.000000 Na
   O2479       1.0     0.708330     0.208330     0.239590    Biso  1.000000 O
   O2480       1.0     0.736110     0.222220     0.093750    Biso  1.000000 O
   O2481       1.0     0.736110     0.222220     0.572920    Biso  1.000000 O
   O2482       1.0     0.722220     0.236110     0.427080    Biso  1.000000 O
   O2483       1.0     0.722220     0.236110     0.906250    Biso  1.000000 O
   O2484       1.0     0.708330     0.208330     0.760410    Biso  1.000000 O
   Li191       1.0     0.722220     0.236110     0.166670    Biso  1.000000 Li
   Mn825       1.0     0.708330     0.208330     0.500000    Biso  1.000000 Mn
   Mn826       1.0     0.736110     0.222220     0.833330    Biso  1.000000 Mn
   Na1243      1.0     0.708330     0.250000     0.000000    Biso  1.000000 Na
   Na1244      1.0     0.736110     0.263890     0.333330    Biso  1.000000 Na
   Na1245      1.0     0.722220     0.277780     0.666670    Biso  1.000000 Na
   O2485       1.0     0.708330     0.250000     0.239590    Biso  1.000000 O
   O2486       1.0     0.736110     0.263890     0.093750    Biso  1.000000 O
   O2487       1.0     0.736110     0.263890     0.572920    Biso  1.000000 O
   O2488       1.0     0.722220     0.277780     0.427080    Biso  1.000000 O
   O2489       1.0     0.722220     0.277780     0.906250    Biso  1.000000 O
   O2490       1.0     0.708330     0.250000     0.760410    Biso  1.000000 O
   Mn827       1.0     0.722220     0.277780     0.166670    Biso  1.000000 Mn
   Mn828       1.0     0.708330     0.250000     0.500000    Biso  1.000000 Mn
   Mn829       1.0     0.736110     0.263890     0.833330    Biso  1.000000 Mn
   Na1246      1.0     0.708330     0.291670     0.000000    Biso  1.000000 Na
   Na1247      1.0     0.736110     0.305560     0.333330    Biso  1.000000 Na
   Na1248      1.0     0.722220     0.319440     0.666670    Biso  1.000000 Na
   O2491       1.0     0.708330     0.291670     0.239590    Biso  1.000000 O
   O2492       1.0     0.736110     0.305560     0.093750    Biso  1.000000 O
   O2493       1.0     0.736110     0.305560     0.572920    Biso  1.000000 O
   O2494       1.0     0.722220     0.319440     0.427080    Biso  1.000000 O
   O2495       1.0     0.722220     0.319440     0.906250    Biso  1.000000 O
   O2496       1.0     0.708330     0.291670     0.760410    Biso  1.000000 O
   Mn830       1.0     0.722220     0.319440     0.166670    Biso  1.000000 Mn
   Li192       1.0     0.708330     0.291670     0.500000    Biso  1.000000 Li
   Li193       1.0     0.736110     0.305560     0.833330    Biso  1.000000 Li
   Na1249      1.0     0.708330     0.333330     0.000000    Biso  1.000000 Na
   Na1250      1.0     0.736110     0.347220     0.333330    Biso  1.000000 Na
   Na1251      1.0     0.722220     0.361110     0.666670    Biso  1.000000 Na
   O2497       1.0     0.708330     0.333330     0.239590    Biso  1.000000 O
   O2498       1.0     0.736110     0.347220     0.093750    Biso  1.000000 O
   O2499       1.0     0.736110     0.347220     0.572920    Biso  1.000000 O
   O2500       1.0     0.722220     0.361110     0.427080    Biso  1.000000 O
   O2501       1.0     0.722220     0.361110     0.906250    Biso  1.000000 O
   O2502       1.0     0.708330     0.333330     0.760410    Biso  1.000000 O
   Li194       1.0     0.722220     0.361110     0.166670    Biso  1.000000 Li
   Mn831       1.0     0.708330     0.333330     0.500000    Biso  1.000000 Mn
   Mn832       1.0     0.736110     0.347220     0.833330    Biso  1.000000 Mn
   Na1252      1.0     0.708330     0.375000     0.000000    Biso  1.000000 Na
   Na1253      1.0     0.736110     0.388890     0.333330    Biso  1.000000 Na
   Na1254      1.0     0.722220     0.402780     0.666670    Biso  1.000000 Na
   O2503       1.0     0.708330     0.375000     0.239590    Biso  1.000000 O
   O2504       1.0     0.736110     0.388890     0.093750    Biso  1.000000 O
   O2505       1.0     0.736110     0.388890     0.572920    Biso  1.000000 O
   O2506       1.0     0.722220     0.402780     0.427080    Biso  1.000000 O
   O2507       1.0     0.722220     0.402780     0.906250    Biso  1.000000 O
   O2508       1.0     0.708330     0.375000     0.760410    Biso  1.000000 O
   Mn833       1.0     0.722220     0.402780     0.166670    Biso  1.000000 Mn
   Mn834       1.0     0.708330     0.375000     0.500000    Biso  1.000000 Mn
   Mn835       1.0     0.736110     0.388890     0.833330    Biso  1.000000 Mn
   Na1255      1.0     0.708330     0.416670     0.000000    Biso  1.000000 Na
   Na1256      1.0     0.736110     0.430560     0.333330    Biso  1.000000 Na
   Na1257      1.0     0.722220     0.444440     0.666670    Biso  1.000000 Na
   O2509       1.0     0.708330     0.416670     0.239590    Biso  1.000000 O
   O2510       1.0     0.736110     0.430560     0.093750    Biso  1.000000 O
   O2511       1.0     0.736110     0.430560     0.572920    Biso  1.000000 O
   O2512       1.0     0.722220     0.444440     0.427080    Biso  1.000000 O
   O2513       1.0     0.722220     0.444440     0.906250    Biso  1.000000 O
   O2514       1.0     0.708330     0.416670     0.760410    Biso  1.000000 O
   Mn836       1.0     0.722220     0.444440     0.166670    Biso  1.000000 Mn
   Li195       1.0     0.708330     0.416670     0.500000    Biso  1.000000 Li
   Li196       1.0     0.736110     0.430560     0.833330    Biso  1.000000 Li
   Na1258      1.0     0.708330     0.458330     0.000000    Biso  1.000000 Na
   Na1259      1.0     0.736110     0.472220     0.333330    Biso  1.000000 Na
   Na1260      1.0     0.722220     0.486110     0.666670    Biso  1.000000 Na
   O2515       1.0     0.708330     0.458330     0.239590    Biso  1.000000 O
   O2516       1.0     0.736110     0.472220     0.093750    Biso  1.000000 O
   O2517       1.0     0.736110     0.472220     0.572920    Biso  1.000000 O
   O2518       1.0     0.722220     0.486110     0.427080    Biso  1.000000 O
   O2519       1.0     0.722220     0.486110     0.906250    Biso  1.000000 O
   O2520       1.0     0.708330     0.458330     0.760410    Biso  1.000000 O
   Mn837       1.0     0.722220     0.486110     0.166670    Biso  1.000000 Mn
   Mn838       1.0     0.708330     0.458330     0.500000    Biso  1.000000 Mn
   Mn839       1.0     0.736110     0.472220     0.833330    Biso  1.000000 Mn
   Na1261      1.0     0.708330     0.500000     0.000000    Biso  1.000000 Na
   Na1262      1.0     0.736110     0.513890     0.333330    Biso  1.000000 Na
   Na1263      1.0     0.722220     0.527780     0.666670    Biso  1.000000 Na
   O2521       1.0     0.708330     0.500000     0.239590    Biso  1.000000 O
   O2522       1.0     0.736110     0.513890     0.093750    Biso  1.000000 O
   O2523       1.0     0.736110     0.513890     0.572920    Biso  1.000000 O
   O2524       1.0     0.722220     0.527780     0.427080    Biso  1.000000 O
   O2525       1.0     0.722220     0.527780     0.906250    Biso  1.000000 O
   O2526       1.0     0.708330     0.500000     0.760410    Biso  1.000000 O
   Ni226       1.0     0.722220     0.527780     0.166670    Biso  1.000000 Ni
   Mn840       1.0     0.708330     0.500000     0.500000    Biso  1.000000 Mn
   Mn841       1.0     0.736110     0.513890     0.833330    Biso  1.000000 Mn
   Na1264      1.0     0.708330     0.541670     0.000000    Biso  1.000000 Na
   Na1265      1.0     0.736110     0.555560     0.333330    Biso  1.000000 Na
   Na1266      1.0     0.722220     0.569440     0.666670    Biso  1.000000 Na
   O2527       1.0     0.708330     0.541670     0.239590    Biso  1.000000 O
   O2528       1.0     0.736110     0.555560     0.093750    Biso  1.000000 O
   O2529       1.0     0.736110     0.555560     0.572920    Biso  1.000000 O
   O2530       1.0     0.722220     0.569440     0.427080    Biso  1.000000 O
   O2531       1.0     0.722220     0.569440     0.906250    Biso  1.000000 O
   O2532       1.0     0.708330     0.541670     0.760410    Biso  1.000000 O
   Mn842       1.0     0.722220     0.569440     0.166670    Biso  1.000000 Mn
   Ni227       1.0     0.708330     0.541670     0.500000    Biso  1.000000 Ni
   Ni228       1.0     0.736110     0.555560     0.833330    Biso  1.000000 Ni
   Na1267      1.0     0.708330     0.583330     0.000000    Biso  1.000000 Na
   Na1268      1.0     0.736110     0.597220     0.333330    Biso  1.000000 Na
   Na1269      1.0     0.722220     0.611110     0.666670    Biso  1.000000 Na
   O2533       1.0     0.708330     0.583330     0.239590    Biso  1.000000 O
   O2534       1.0     0.736110     0.597220     0.093750    Biso  1.000000 O
   O2535       1.0     0.736110     0.597220     0.572920    Biso  1.000000 O
   O2536       1.0     0.722220     0.611110     0.427080    Biso  1.000000 O
   O2537       1.0     0.722220     0.611110     0.906250    Biso  1.000000 O
   O2538       1.0     0.708330     0.583330     0.760410    Biso  1.000000 O
   Ni229       1.0     0.722220     0.611110     0.166670    Biso  1.000000 Ni
   Mn843       1.0     0.708330     0.583330     0.500000    Biso  1.000000 Mn
   Mn844       1.0     0.736110     0.597220     0.833330    Biso  1.000000 Mn
   Na1270      1.0     0.708330     0.625000     0.000000    Biso  1.000000 Na
   Na1271      1.0     0.736110     0.638890     0.333330    Biso  1.000000 Na
   Na1272      1.0     0.722220     0.652780     0.666670    Biso  1.000000 Na
   O2539       1.0     0.708330     0.625000     0.239590    Biso  1.000000 O
   O2540       1.0     0.736110     0.638890     0.093750    Biso  1.000000 O
   O2541       1.0     0.736110     0.638890     0.572920    Biso  1.000000 O
   O2542       1.0     0.722220     0.652780     0.427080    Biso  1.000000 O
   O2543       1.0     0.722220     0.652780     0.906250    Biso  1.000000 O
   O2544       1.0     0.708330     0.625000     0.760410    Biso  1.000000 O
   Mn845       1.0     0.722220     0.652780     0.166670    Biso  1.000000 Mn
   Mn846       1.0     0.708330     0.625000     0.500000    Biso  1.000000 Mn
   Mn847       1.0     0.736110     0.638890     0.833330    Biso  1.000000 Mn
   Na1273      1.0     0.708330     0.666670     0.000000    Biso  1.000000 Na
   Na1274      1.0     0.736110     0.680560     0.333330    Biso  1.000000 Na
   Na1275      1.0     0.722220     0.694440     0.666670    Biso  1.000000 Na
   O2545       1.0     0.708330     0.666670     0.239590    Biso  1.000000 O
   O2546       1.0     0.736110     0.680560     0.093750    Biso  1.000000 O
   O2547       1.0     0.736110     0.680560     0.572920    Biso  1.000000 O
   O2548       1.0     0.722220     0.694440     0.427080    Biso  1.000000 O
   O2549       1.0     0.722220     0.694440     0.906250    Biso  1.000000 O
   O2550       1.0     0.708330     0.666670     0.760410    Biso  1.000000 O
   Mn848       1.0     0.722220     0.694440     0.166670    Biso  1.000000 Mn
   Ni230       1.0     0.708330     0.666670     0.500000    Biso  1.000000 Ni
   Ni231       1.0     0.736110     0.680560     0.833330    Biso  1.000000 Ni
   Na1276      1.0     0.708330     0.708330     0.000000    Biso  1.000000 Na
   Na1277      1.0     0.736110     0.722220     0.333330    Biso  1.000000 Na
   Na1278      1.0     0.722220     0.736110     0.666670    Biso  1.000000 Na
   O2551       1.0     0.708330     0.708330     0.239590    Biso  1.000000 O
   O2552       1.0     0.736110     0.722220     0.093750    Biso  1.000000 O
   O2553       1.0     0.736110     0.722220     0.572920    Biso  1.000000 O
   O2554       1.0     0.722220     0.736110     0.427080    Biso  1.000000 O
   O2555       1.0     0.722220     0.736110     0.906250    Biso  1.000000 O
   O2556       1.0     0.708330     0.708330     0.760410    Biso  1.000000 O
   Ni232       1.0     0.722220     0.736110     0.166670    Biso  1.000000 Ni
   Mn849       1.0     0.708330     0.708330     0.500000    Biso  1.000000 Mn
   Mn850       1.0     0.736110     0.722220     0.833330    Biso  1.000000 Mn
   Na1279      1.0     0.708330     0.750000     0.000000    Biso  1.000000 Na
   Na1280      1.0     0.736110     0.763890     0.333330    Biso  1.000000 Na
   Na1281      1.0     0.722220     0.777780     0.666670    Biso  1.000000 Na
   O2557       1.0     0.708330     0.750000     0.239590    Biso  1.000000 O
   O2558       1.0     0.736110     0.763890     0.093750    Biso  1.000000 O
   O2559       1.0     0.736110     0.763890     0.572920    Biso  1.000000 O
   O2560       1.0     0.722220     0.777780     0.427080    Biso  1.000000 O
   O2561       1.0     0.722220     0.777780     0.906250    Biso  1.000000 O
   O2562       1.0     0.708330     0.750000     0.760410    Biso  1.000000 O
   Mn851       1.0     0.722220     0.777780     0.166670    Biso  1.000000 Mn
   Mn852       1.0     0.708330     0.750000     0.500000    Biso  1.000000 Mn
   Mn853       1.0     0.736110     0.763890     0.833330    Biso  1.000000 Mn
   Na1282      1.0     0.708330     0.791670     0.000000    Biso  1.000000 Na
   Na1283      1.0     0.736110     0.805560     0.333330    Biso  1.000000 Na
   Na1284      1.0     0.722220     0.819440     0.666670    Biso  1.000000 Na
   O2563       1.0     0.708330     0.791670     0.239590    Biso  1.000000 O
   O2564       1.0     0.736110     0.805560     0.093750    Biso  1.000000 O
   O2565       1.0     0.736110     0.805560     0.572920    Biso  1.000000 O
   O2566       1.0     0.722220     0.819440     0.427080    Biso  1.000000 O
   O2567       1.0     0.722220     0.819440     0.906250    Biso  1.000000 O
   O2568       1.0     0.708330     0.791670     0.760410    Biso  1.000000 O
   Mn854       1.0     0.722220     0.819440     0.166670    Biso  1.000000 Mn
   Li197       1.0     0.708330     0.791670     0.500000    Biso  1.000000 Li
   Li198       1.0     0.736110     0.805560     0.833330    Biso  1.000000 Li
   Na1285      1.0     0.708330     0.833330     0.000000    Biso  1.000000 Na
   Na1286      1.0     0.736110     0.847220     0.333330    Biso  1.000000 Na
   Na1287      1.0     0.722220     0.861110     0.666670    Biso  1.000000 Na
   O2569       1.0     0.708330     0.833330     0.239590    Biso  1.000000 O
   O2570       1.0     0.736110     0.847220     0.093750    Biso  1.000000 O
   O2571       1.0     0.736110     0.847220     0.572920    Biso  1.000000 O
   O2572       1.0     0.722220     0.861110     0.427080    Biso  1.000000 O
   O2573       1.0     0.722220     0.861110     0.906250    Biso  1.000000 O
   O2574       1.0     0.708330     0.833330     0.760410    Biso  1.000000 O
   Ni233       1.0     0.722220     0.861110     0.166670    Biso  1.000000 Ni
   Mn855       1.0     0.708330     0.833330     0.500000    Biso  1.000000 Mn
   Mn856       1.0     0.736110     0.847220     0.833330    Biso  1.000000 Mn
   Na1288      1.0     0.708330     0.875000     0.000000    Biso  1.000000 Na
   Na1289      1.0     0.736110     0.888890     0.333330    Biso  1.000000 Na
   Na1290      1.0     0.722220     0.902780     0.666670    Biso  1.000000 Na
   O2575       1.0     0.708330     0.875000     0.239590    Biso  1.000000 O
   O2576       1.0     0.736110     0.888890     0.093750    Biso  1.000000 O
   O2577       1.0     0.736110     0.888890     0.572920    Biso  1.000000 O
   O2578       1.0     0.722220     0.902780     0.427080    Biso  1.000000 O
   O2579       1.0     0.722220     0.902780     0.906250    Biso  1.000000 O
   O2580       1.0     0.708330     0.875000     0.760410    Biso  1.000000 O
   Mn857       1.0     0.722220     0.902780     0.166670    Biso  1.000000 Mn
   Mn858       1.0     0.708330     0.875000     0.500000    Biso  1.000000 Mn
   Mn859       1.0     0.736110     0.888890     0.833330    Biso  1.000000 Mn
   Na1291      1.0     0.708330     0.916670     0.000000    Biso  1.000000 Na
   Na1292      1.0     0.736110     0.930560     0.333330    Biso  1.000000 Na
   Na1293      1.0     0.722220     0.944440     0.666670    Biso  1.000000 Na
   O2581       1.0     0.708330     0.916670     0.239590    Biso  1.000000 O
   O2582       1.0     0.736110     0.930560     0.093750    Biso  1.000000 O
   O2583       1.0     0.736110     0.930560     0.572920    Biso  1.000000 O
   O2584       1.0     0.722220     0.944440     0.427080    Biso  1.000000 O
   O2585       1.0     0.722220     0.944440     0.906250    Biso  1.000000 O
   O2586       1.0     0.708330     0.916670     0.760410    Biso  1.000000 O
   Mn860       1.0     0.722220     0.944440     0.166670    Biso  1.000000 Mn
   Li199       1.0     0.708330     0.916670     0.500000    Biso  1.000000 Li
   Li200       1.0     0.736110     0.930560     0.833330    Biso  1.000000 Li
   Na1294      1.0     0.708330     0.958330     0.000000    Biso  1.000000 Na
   Na1295      1.0     0.736110     0.972220     0.333330    Biso  1.000000 Na
   Na1296      1.0     0.722220     0.986110     0.666670    Biso  1.000000 Na
   O2587       1.0     0.708330     0.958330     0.239590    Biso  1.000000 O
   O2588       1.0     0.736110     0.972220     0.093750    Biso  1.000000 O
   O2589       1.0     0.736110     0.972220     0.572920    Biso  1.000000 O
   O2590       1.0     0.722220     0.986110     0.427080    Biso  1.000000 O
   O2591       1.0     0.722220     0.986110     0.906250    Biso  1.000000 O
   O2592       1.0     0.708330     0.958330     0.760410    Biso  1.000000 O
   Li201       1.0     0.722220     0.986110     0.166670    Biso  1.000000 Li
   Mn861       1.0     0.708330     0.958330     0.500000    Biso  1.000000 Mn
   Mn862       1.0     0.736110     0.972220     0.833330    Biso  1.000000 Mn
   Na1297      1.0     0.750000     0.000000     0.000000    Biso  1.000000 Na
   Na1298      1.0     0.777780     0.013890     0.333330    Biso  1.000000 Na
   Na1299      1.0     0.763890     0.027780     0.666670    Biso  1.000000 Na
   O2593       1.0     0.750000     0.000000     0.239590    Biso  1.000000 O
   O2594       1.0     0.777780     0.013890     0.093750    Biso  1.000000 O
   O2595       1.0     0.777780     0.013890     0.572920    Biso  1.000000 O
   O2596       1.0     0.763890     0.027780     0.427080    Biso  1.000000 O
   O2597       1.0     0.763890     0.027780     0.906250    Biso  1.000000 O
   O2598       1.0     0.750000     0.000000     0.760410    Biso  1.000000 O
   Mn863       1.0     0.763890     0.027780     0.166670    Biso  1.000000 Mn
   Li202       1.0     0.750000     0.000000     0.500000    Biso  1.000000 Li
   Li203       1.0     0.777780     0.013890     0.833330    Biso  1.000000 Li
   Na1300      1.0     0.750000     0.041670     0.000000    Biso  1.000000 Na
   Na1301      1.0     0.777780     0.055560     0.333330    Biso  1.000000 Na
   Na1302      1.0     0.763890     0.069440     0.666670    Biso  1.000000 Na
   O2599       1.0     0.750000     0.041670     0.239590    Biso  1.000000 O
   O2600       1.0     0.777780     0.055560     0.093750    Biso  1.000000 O
   O2601       1.0     0.777780     0.055560     0.572920    Biso  1.000000 O
   O2602       1.0     0.763890     0.069440     0.427080    Biso  1.000000 O
   O2603       1.0     0.763890     0.069440     0.906250    Biso  1.000000 O
   O2604       1.0     0.750000     0.041670     0.760410    Biso  1.000000 O
   Li204       1.0     0.763890     0.069440     0.166670    Biso  1.000000 Li
   Mn864       1.0     0.750000     0.041670     0.500000    Biso  1.000000 Mn
   Mn865       1.0     0.777780     0.055560     0.833330    Biso  1.000000 Mn
   Na1303      1.0     0.750000     0.083330     0.000000    Biso  1.000000 Na
   Na1304      1.0     0.777780     0.097220     0.333330    Biso  1.000000 Na
   Na1305      1.0     0.763890     0.111110     0.666670    Biso  1.000000 Na
   O2605       1.0     0.750000     0.083330     0.239590    Biso  1.000000 O
   O2606       1.0     0.777780     0.097220     0.093750    Biso  1.000000 O
   O2607       1.0     0.777780     0.097220     0.572920    Biso  1.000000 O
   O2608       1.0     0.763890     0.111110     0.427080    Biso  1.000000 O
   O2609       1.0     0.763890     0.111110     0.906250    Biso  1.000000 O
   O2610       1.0     0.750000     0.083330     0.760410    Biso  1.000000 O
   Mn866       1.0     0.763890     0.111110     0.166670    Biso  1.000000 Mn
   Mn867       1.0     0.750000     0.083330     0.500000    Biso  1.000000 Mn
   Mn868       1.0     0.777780     0.097220     0.833330    Biso  1.000000 Mn
   Na1306      1.0     0.750000     0.125000     0.000000    Biso  1.000000 Na
   Na1307      1.0     0.777780     0.138890     0.333330    Biso  1.000000 Na
   Na1308      1.0     0.763890     0.152780     0.666670    Biso  1.000000 Na
   O2611       1.0     0.750000     0.125000     0.239590    Biso  1.000000 O
   O2612       1.0     0.777780     0.138890     0.093750    Biso  1.000000 O
   O2613       1.0     0.777780     0.138890     0.572920    Biso  1.000000 O
   O2614       1.0     0.763890     0.152780     0.427080    Biso  1.000000 O
   O2615       1.0     0.763890     0.152780     0.906250    Biso  1.000000 O
   O2616       1.0     0.750000     0.125000     0.760410    Biso  1.000000 O
   Mn869       1.0     0.763890     0.152780     0.166670    Biso  1.000000 Mn
   Li205       1.0     0.750000     0.125000     0.500000    Biso  1.000000 Li
   Li206       1.0     0.777780     0.138890     0.833330    Biso  1.000000 Li
   Na1309      1.0     0.750000     0.166670     0.000000    Biso  1.000000 Na
   Na1310      1.0     0.777780     0.180560     0.333330    Biso  1.000000 Na
   Na1311      1.0     0.763890     0.194440     0.666670    Biso  1.000000 Na
   O2617       1.0     0.750000     0.166670     0.239590    Biso  1.000000 O
   O2618       1.0     0.777780     0.180560     0.093750    Biso  1.000000 O
   O2619       1.0     0.777780     0.180560     0.572920    Biso  1.000000 O
   O2620       1.0     0.763890     0.194440     0.427080    Biso  1.000000 O
   O2621       1.0     0.763890     0.194440     0.906250    Biso  1.000000 O
   O2622       1.0     0.750000     0.166670     0.760410    Biso  1.000000 O
   Li207       1.0     0.763890     0.194440     0.166670    Biso  1.000000 Li
   Mn870       1.0     0.750000     0.166670     0.500000    Biso  1.000000 Mn
   Mn871       1.0     0.777780     0.180560     0.833330    Biso  1.000000 Mn
   Na1312      1.0     0.750000     0.208330     0.000000    Biso  1.000000 Na
   Na1313      1.0     0.777780     0.222220     0.333330    Biso  1.000000 Na
   Na1314      1.0     0.763890     0.236110     0.666670    Biso  1.000000 Na
   O2623       1.0     0.750000     0.208330     0.239590    Biso  1.000000 O
   O2624       1.0     0.777780     0.222220     0.093750    Biso  1.000000 O
   O2625       1.0     0.777780     0.222220     0.572920    Biso  1.000000 O
   O2626       1.0     0.763890     0.236110     0.427080    Biso  1.000000 O
   O2627       1.0     0.763890     0.236110     0.906250    Biso  1.000000 O
   O2628       1.0     0.750000     0.208330     0.760410    Biso  1.000000 O
   Mn872       1.0     0.763890     0.236110     0.166670    Biso  1.000000 Mn
   Mn873       1.0     0.750000     0.208330     0.500000    Biso  1.000000 Mn
   Mn874       1.0     0.777780     0.222220     0.833330    Biso  1.000000 Mn
   Na1315      1.0     0.750000     0.250000     0.000000    Biso  1.000000 Na
   Na1316      1.0     0.777780     0.263890     0.333330    Biso  1.000000 Na
   Na1317      1.0     0.763890     0.277780     0.666670    Biso  1.000000 Na
   O2629       1.0     0.750000     0.250000     0.239590    Biso  1.000000 O
   O2630       1.0     0.777780     0.263890     0.093750    Biso  1.000000 O
   O2631       1.0     0.777780     0.263890     0.572920    Biso  1.000000 O
   O2632       1.0     0.763890     0.277780     0.427080    Biso  1.000000 O
   O2633       1.0     0.763890     0.277780     0.906250    Biso  1.000000 O
   O2634       1.0     0.750000     0.250000     0.760410    Biso  1.000000 O
   Mn875       1.0     0.763890     0.277780     0.166670    Biso  1.000000 Mn
   Li208       1.0     0.750000     0.250000     0.500000    Biso  1.000000 Li
   Li209       1.0     0.777780     0.263890     0.833330    Biso  1.000000 Li
   Na1318      1.0     0.750000     0.291670     0.000000    Biso  1.000000 Na
   Na1319      1.0     0.777780     0.305560     0.333330    Biso  1.000000 Na
   Na1320      1.0     0.763890     0.319440     0.666670    Biso  1.000000 Na
   O2635       1.0     0.750000     0.291670     0.239590    Biso  1.000000 O
   O2636       1.0     0.777780     0.305560     0.093750    Biso  1.000000 O
   O2637       1.0     0.777780     0.305560     0.572920    Biso  1.000000 O
   O2638       1.0     0.763890     0.319440     0.427080    Biso  1.000000 O
   O2639       1.0     0.763890     0.319440     0.906250    Biso  1.000000 O
   O2640       1.0     0.750000     0.291670     0.760410    Biso  1.000000 O
   Li210       1.0     0.763890     0.319440     0.166670    Biso  1.000000 Li
   Mn876       1.0     0.750000     0.291670     0.500000    Biso  1.000000 Mn
   Mn877       1.0     0.777780     0.305560     0.833330    Biso  1.000000 Mn
   Na1321      1.0     0.750000     0.333330     0.000000    Biso  1.000000 Na
   Na1322      1.0     0.777780     0.347220     0.333330    Biso  1.000000 Na
   Na1323      1.0     0.763890     0.361110     0.666670    Biso  1.000000 Na
   O2641       1.0     0.750000     0.333330     0.239590    Biso  1.000000 O
   O2642       1.0     0.777780     0.347220     0.093750    Biso  1.000000 O
   O2643       1.0     0.777780     0.347220     0.572920    Biso  1.000000 O
   O2644       1.0     0.763890     0.361110     0.427080    Biso  1.000000 O
   O2645       1.0     0.763890     0.361110     0.906250    Biso  1.000000 O
   O2646       1.0     0.750000     0.333330     0.760410    Biso  1.000000 O
   Mn878       1.0     0.763890     0.361110     0.166670    Biso  1.000000 Mn
   Mn879       1.0     0.750000     0.333330     0.500000    Biso  1.000000 Mn
   Mn880       1.0     0.777780     0.347220     0.833330    Biso  1.000000 Mn
   Na1324      1.0     0.750000     0.375000     0.000000    Biso  1.000000 Na
   Na1325      1.0     0.777780     0.388890     0.333330    Biso  1.000000 Na
   Na1326      1.0     0.763890     0.402780     0.666670    Biso  1.000000 Na
   O2647       1.0     0.750000     0.375000     0.239590    Biso  1.000000 O
   O2648       1.0     0.777780     0.388890     0.093750    Biso  1.000000 O
   O2649       1.0     0.777780     0.388890     0.572920    Biso  1.000000 O
   O2650       1.0     0.763890     0.402780     0.427080    Biso  1.000000 O
   O2651       1.0     0.763890     0.402780     0.906250    Biso  1.000000 O
   O2652       1.0     0.750000     0.375000     0.760410    Biso  1.000000 O
   Mn881       1.0     0.763890     0.402780     0.166670    Biso  1.000000 Mn
   Li211       1.0     0.750000     0.375000     0.500000    Biso  1.000000 Li
   Li212       1.0     0.777780     0.388890     0.833330    Biso  1.000000 Li
   Na1327      1.0     0.750000     0.416670     0.000000    Biso  1.000000 Na
   Na1328      1.0     0.777780     0.430560     0.333330    Biso  1.000000 Na
   Na1329      1.0     0.763890     0.444440     0.666670    Biso  1.000000 Na
   O2653       1.0     0.750000     0.416670     0.239590    Biso  1.000000 O
   O2654       1.0     0.777780     0.430560     0.093750    Biso  1.000000 O
   O2655       1.0     0.777780     0.430560     0.572920    Biso  1.000000 O
   O2656       1.0     0.763890     0.444440     0.427080    Biso  1.000000 O
   O2657       1.0     0.763890     0.444440     0.906250    Biso  1.000000 O
   O2658       1.0     0.750000     0.416670     0.760410    Biso  1.000000 O
   Mn882       1.0     0.763890     0.444440     0.166670    Biso  1.000000 Mn
   Mn883       1.0     0.750000     0.416670     0.500000    Biso  1.000000 Mn
   Mn884       1.0     0.777780     0.430560     0.833330    Biso  1.000000 Mn
   Na1330      1.0     0.750000     0.458330     0.000000    Biso  1.000000 Na
   Na1331      1.0     0.777780     0.472220     0.333330    Biso  1.000000 Na
   Na1332      1.0     0.763890     0.486110     0.666670    Biso  1.000000 Na
   O2659       1.0     0.750000     0.458330     0.239590    Biso  1.000000 O
   O2660       1.0     0.777780     0.472220     0.093750    Biso  1.000000 O
   O2661       1.0     0.777780     0.472220     0.572920    Biso  1.000000 O
   O2662       1.0     0.763890     0.486110     0.427080    Biso  1.000000 O
   O2663       1.0     0.763890     0.486110     0.906250    Biso  1.000000 O
   O2664       1.0     0.750000     0.458330     0.760410    Biso  1.000000 O
   Li213       1.0     0.763890     0.486110     0.166670    Biso  1.000000 Li
   Mn885       1.0     0.750000     0.458330     0.500000    Biso  1.000000 Mn
   Mn886       1.0     0.777780     0.472220     0.833330    Biso  1.000000 Mn
   Na1333      1.0     0.750000     0.500000     0.000000    Biso  1.000000 Na
   Na1334      1.0     0.777780     0.513890     0.333330    Biso  1.000000 Na
   Na1335      1.0     0.763890     0.527780     0.666670    Biso  1.000000 Na
   O2665       1.0     0.750000     0.500000     0.239590    Biso  1.000000 O
   O2666       1.0     0.777780     0.513890     0.093750    Biso  1.000000 O
   O2667       1.0     0.777780     0.513890     0.572920    Biso  1.000000 O
   O2668       1.0     0.763890     0.527780     0.427080    Biso  1.000000 O
   O2669       1.0     0.763890     0.527780     0.906250    Biso  1.000000 O
   O2670       1.0     0.750000     0.500000     0.760410    Biso  1.000000 O
   Mn887       1.0     0.763890     0.527780     0.166670    Biso  1.000000 Mn
   Li214       1.0     0.750000     0.500000     0.500000    Biso  1.000000 Li
   Li215       1.0     0.777780     0.513890     0.833330    Biso  1.000000 Li
   Na1336      1.0     0.750000     0.541670     0.000000    Biso  1.000000 Na
   Na1337      1.0     0.777780     0.555560     0.333330    Biso  1.000000 Na
   Na1338      1.0     0.763890     0.569440     0.666670    Biso  1.000000 Na
   O2671       1.0     0.750000     0.541670     0.239590    Biso  1.000000 O
   O2672       1.0     0.777780     0.555560     0.093750    Biso  1.000000 O
   O2673       1.0     0.777780     0.555560     0.572920    Biso  1.000000 O
   O2674       1.0     0.763890     0.569440     0.427080    Biso  1.000000 O
   O2675       1.0     0.763890     0.569440     0.906250    Biso  1.000000 O
   O2676       1.0     0.750000     0.541670     0.760410    Biso  1.000000 O
   Mn888       1.0     0.763890     0.569440     0.166670    Biso  1.000000 Mn
   Mn889       1.0     0.750000     0.541670     0.500000    Biso  1.000000 Mn
   Mn890       1.0     0.777780     0.555560     0.833330    Biso  1.000000 Mn
   Na1339      1.0     0.750000     0.583330     0.000000    Biso  1.000000 Na
   Na1340      1.0     0.777780     0.597220     0.333330    Biso  1.000000 Na
   Na1341      1.0     0.763890     0.611110     0.666670    Biso  1.000000 Na
   O2677       1.0     0.750000     0.583330     0.239590    Biso  1.000000 O
   O2678       1.0     0.777780     0.597220     0.093750    Biso  1.000000 O
   O2679       1.0     0.777780     0.597220     0.572920    Biso  1.000000 O
   O2680       1.0     0.763890     0.611110     0.427080    Biso  1.000000 O
   O2681       1.0     0.763890     0.611110     0.906250    Biso  1.000000 O
   O2682       1.0     0.750000     0.583330     0.760410    Biso  1.000000 O
   Mn891       1.0     0.763890     0.611110     0.166670    Biso  1.000000 Mn
   Mn892       1.0     0.750000     0.583330     0.500000    Biso  1.000000 Mn
   Mn893       1.0     0.777780     0.597220     0.833330    Biso  1.000000 Mn
   Na1342      1.0     0.750000     0.625000     0.000000    Biso  1.000000 Na
   Na1343      1.0     0.777780     0.638890     0.333330    Biso  1.000000 Na
   Na1344      1.0     0.763890     0.652780     0.666670    Biso  1.000000 Na
   O2683       1.0     0.750000     0.625000     0.239590    Biso  1.000000 O
   O2684       1.0     0.777780     0.638890     0.093750    Biso  1.000000 O
   O2685       1.0     0.777780     0.638890     0.572920    Biso  1.000000 O
   O2686       1.0     0.763890     0.652780     0.427080    Biso  1.000000 O
   O2687       1.0     0.763890     0.652780     0.906250    Biso  1.000000 O
   O2688       1.0     0.750000     0.625000     0.760410    Biso  1.000000 O
   Mn894       1.0     0.763890     0.652780     0.166670    Biso  1.000000 Mn
   Ni234       1.0     0.750000     0.625000     0.500000    Biso  1.000000 Ni
   Mn895       1.0     0.777780     0.638890     0.833330    Biso  1.000000 Mn
   Na1345      1.0     0.750000     0.666670     0.000000    Biso  1.000000 Na
   Na1346      1.0     0.777780     0.680560     0.333330    Biso  1.000000 Na
   Na1347      1.0     0.763890     0.694440     0.666670    Biso  1.000000 Na
   O2689       1.0     0.750000     0.666670     0.239590    Biso  1.000000 O
   O2690       1.0     0.777780     0.680560     0.093750    Biso  1.000000 O
   O2691       1.0     0.777780     0.680560     0.572920    Biso  1.000000 O
   O2692       1.0     0.763890     0.694440     0.427080    Biso  1.000000 O
   O2693       1.0     0.763890     0.694440     0.906250    Biso  1.000000 O
   O2694       1.0     0.750000     0.666670     0.760410    Biso  1.000000 O
   Ni235       1.0     0.763890     0.694440     0.166670    Biso  1.000000 Ni
   Mn896       1.0     0.750000     0.666670     0.500000    Biso  1.000000 Mn
   Mn897       1.0     0.777780     0.680560     0.833330    Biso  1.000000 Mn
   Na1348      1.0     0.750000     0.708330     0.000000    Biso  1.000000 Na
   Na1349      1.0     0.777780     0.722220     0.333330    Biso  1.000000 Na
   Na1350      1.0     0.763890     0.736110     0.666670    Biso  1.000000 Na
   O2695       1.0     0.750000     0.708330     0.239590    Biso  1.000000 O
   O2696       1.0     0.777780     0.722220     0.093750    Biso  1.000000 O
   O2697       1.0     0.777780     0.722220     0.572920    Biso  1.000000 O
   O2698       1.0     0.763890     0.736110     0.427080    Biso  1.000000 O
   O2699       1.0     0.763890     0.736110     0.906250    Biso  1.000000 O
   O2700       1.0     0.750000     0.708330     0.760410    Biso  1.000000 O
   Mn898       1.0     0.763890     0.736110     0.166670    Biso  1.000000 Mn
   Mn899       1.0     0.750000     0.708330     0.500000    Biso  1.000000 Mn
   Mn900       1.0     0.777780     0.722220     0.833330    Biso  1.000000 Mn
   Na1351      1.0     0.750000     0.750000     0.000000    Biso  1.000000 Na
   Na1352      1.0     0.777780     0.763890     0.333330    Biso  1.000000 Na
   Na1353      1.0     0.763890     0.777780     0.666670    Biso  1.000000 Na
   O2701       1.0     0.750000     0.750000     0.239590    Biso  1.000000 O
   O2702       1.0     0.777780     0.763890     0.093750    Biso  1.000000 O
   O2703       1.0     0.777780     0.763890     0.572920    Biso  1.000000 O
   O2704       1.0     0.763890     0.777780     0.427080    Biso  1.000000 O
   O2705       1.0     0.763890     0.777780     0.906250    Biso  1.000000 O
   O2706       1.0     0.750000     0.750000     0.760410    Biso  1.000000 O
   Mn901       1.0     0.763890     0.777780     0.166670    Biso  1.000000 Mn
   Ni236       1.0     0.750000     0.750000     0.500000    Biso  1.000000 Ni
   Ni237       1.0     0.777780     0.763890     0.833330    Biso  1.000000 Ni
   Na1354      1.0     0.750000     0.791670     0.000000    Biso  1.000000 Na
   Na1355      1.0     0.777780     0.805560     0.333330    Biso  1.000000 Na
   Na1356      1.0     0.763890     0.819440     0.666670    Biso  1.000000 Na
   O2707       1.0     0.750000     0.791670     0.239590    Biso  1.000000 O
   O2708       1.0     0.777780     0.805560     0.093750    Biso  1.000000 O
   O2709       1.0     0.777780     0.805560     0.572920    Biso  1.000000 O
   O2710       1.0     0.763890     0.819440     0.427080    Biso  1.000000 O
   O2711       1.0     0.763890     0.819440     0.906250    Biso  1.000000 O
   O2712       1.0     0.750000     0.791670     0.760410    Biso  1.000000 O
   Ni238       1.0     0.763890     0.819440     0.166670    Biso  1.000000 Ni
   Mn902       1.0     0.750000     0.791670     0.500000    Biso  1.000000 Mn
   Mn903       1.0     0.777780     0.805560     0.833330    Biso  1.000000 Mn
   Na1357      1.0     0.750000     0.833330     0.000000    Biso  1.000000 Na
   Na1358      1.0     0.777780     0.847220     0.333330    Biso  1.000000 Na
   Na1359      1.0     0.763890     0.861110     0.666670    Biso  1.000000 Na
   O2713       1.0     0.750000     0.833330     0.239590    Biso  1.000000 O
   O2714       1.0     0.777780     0.847220     0.093750    Biso  1.000000 O
   O2715       1.0     0.777780     0.847220     0.572920    Biso  1.000000 O
   O2716       1.0     0.763890     0.861110     0.427080    Biso  1.000000 O
   O2717       1.0     0.763890     0.861110     0.906250    Biso  1.000000 O
   O2718       1.0     0.750000     0.833330     0.760410    Biso  1.000000 O
   Mn904       1.0     0.763890     0.861110     0.166670    Biso  1.000000 Mn
   Mn905       1.0     0.750000     0.833330     0.500000    Biso  1.000000 Mn
   Mn906       1.0     0.777780     0.847220     0.833330    Biso  1.000000 Mn
   Na1360      1.0     0.750000     0.875000     0.000000    Biso  1.000000 Na
   Na1361      1.0     0.777780     0.888890     0.333330    Biso  1.000000 Na
   Na1362      1.0     0.763890     0.902780     0.666670    Biso  1.000000 Na
   O2719       1.0     0.750000     0.875000     0.239590    Biso  1.000000 O
   O2720       1.0     0.777780     0.888890     0.093750    Biso  1.000000 O
   O2721       1.0     0.777780     0.888890     0.572920    Biso  1.000000 O
   O2722       1.0     0.763890     0.902780     0.427080    Biso  1.000000 O
   O2723       1.0     0.763890     0.902780     0.906250    Biso  1.000000 O
   O2724       1.0     0.750000     0.875000     0.760410    Biso  1.000000 O
   Mn907       1.0     0.763890     0.902780     0.166670    Biso  1.000000 Mn
   Li216       1.0     0.750000     0.875000     0.500000    Biso  1.000000 Li
   Li217       1.0     0.777780     0.888890     0.833330    Biso  1.000000 Li
   Na1363      1.0     0.750000     0.916670     0.000000    Biso  1.000000 Na
   Na1364      1.0     0.777780     0.930560     0.333330    Biso  1.000000 Na
   Na1365      1.0     0.763890     0.944440     0.666670    Biso  1.000000 Na
   O2725       1.0     0.750000     0.916670     0.239590    Biso  1.000000 O
   O2726       1.0     0.777780     0.930560     0.093750    Biso  1.000000 O
   O2727       1.0     0.777780     0.930560     0.572920    Biso  1.000000 O
   O2728       1.0     0.763890     0.944440     0.427080    Biso  1.000000 O
   O2729       1.0     0.763890     0.944440     0.906250    Biso  1.000000 O
   O2730       1.0     0.750000     0.916670     0.760410    Biso  1.000000 O
   Li218       1.0     0.763890     0.944440     0.166670    Biso  1.000000 Li
   Mn908       1.0     0.750000     0.916670     0.500000    Biso  1.000000 Mn
   Mn909       1.0     0.777780     0.930560     0.833330    Biso  1.000000 Mn
   Na1366      1.0     0.750000     0.958330     0.000000    Biso  1.000000 Na
   Na1367      1.0     0.777780     0.972220     0.333330    Biso  1.000000 Na
   Na1368      1.0     0.763890     0.986110     0.666670    Biso  1.000000 Na
   O2731       1.0     0.750000     0.958330     0.239590    Biso  1.000000 O
   O2732       1.0     0.777780     0.972220     0.093750    Biso  1.000000 O
   O2733       1.0     0.777780     0.972220     0.572920    Biso  1.000000 O
   O2734       1.0     0.763890     0.986110     0.427080    Biso  1.000000 O
   O2735       1.0     0.763890     0.986110     0.906250    Biso  1.000000 O
   O2736       1.0     0.750000     0.958330     0.760410    Biso  1.000000 O
   Mn910       1.0     0.763890     0.986110     0.166670    Biso  1.000000 Mn
   Mn911       1.0     0.750000     0.958330     0.500000    Biso  1.000000 Mn
   Mn912       1.0     0.777780     0.972220     0.833330    Biso  1.000000 Mn
   Na1369      1.0     0.791670     0.000000     0.000000    Biso  1.000000 Na
   Na1370      1.0     0.819440     0.013890     0.333330    Biso  1.000000 Na
   Na1371      1.0     0.805560     0.027780     0.666670    Biso  1.000000 Na
   O2737       1.0     0.791670     0.000000     0.239590    Biso  1.000000 O
   O2738       1.0     0.819440     0.013890     0.093750    Biso  1.000000 O
   O2739       1.0     0.819440     0.013890     0.572920    Biso  1.000000 O
   O2740       1.0     0.805560     0.027780     0.427080    Biso  1.000000 O
   O2741       1.0     0.805560     0.027780     0.906250    Biso  1.000000 O
   O2742       1.0     0.791670     0.000000     0.760410    Biso  1.000000 O
   Li219       1.0     0.805560     0.027780     0.166670    Biso  1.000000 Li
   Mn913       1.0     0.791670     0.000000     0.500000    Biso  1.000000 Mn
   Mn914       1.0     0.819440     0.013890     0.833330    Biso  1.000000 Mn
   Na1372      1.0     0.791670     0.041670     0.000000    Biso  1.000000 Na
   Na1373      1.0     0.819440     0.055560     0.333330    Biso  1.000000 Na
   Na1374      1.0     0.805560     0.069440     0.666670    Biso  1.000000 Na
   O2743       1.0     0.791670     0.041670     0.239590    Biso  1.000000 O
   O2744       1.0     0.819440     0.055560     0.093750    Biso  1.000000 O
   O2745       1.0     0.819440     0.055560     0.572920    Biso  1.000000 O
   O2746       1.0     0.805560     0.069440     0.427080    Biso  1.000000 O
   O2747       1.0     0.805560     0.069440     0.906250    Biso  1.000000 O
   O2748       1.0     0.791670     0.041670     0.760410    Biso  1.000000 O
   Mn915       1.0     0.805560     0.069440     0.166670    Biso  1.000000 Mn
   Mn916       1.0     0.791670     0.041670     0.500000    Biso  1.000000 Mn
   Mn917       1.0     0.819440     0.055560     0.833330    Biso  1.000000 Mn
   Na1375      1.0     0.791670     0.083330     0.000000    Biso  1.000000 Na
   Na1376      1.0     0.819440     0.097220     0.333330    Biso  1.000000 Na
   Na1377      1.0     0.805560     0.111110     0.666670    Biso  1.000000 Na
   O2749       1.0     0.791670     0.083330     0.239590    Biso  1.000000 O
   O2750       1.0     0.819440     0.097220     0.093750    Biso  1.000000 O
   O2751       1.0     0.819440     0.097220     0.572920    Biso  1.000000 O
   O2752       1.0     0.805560     0.111110     0.427080    Biso  1.000000 O
   O2753       1.0     0.805560     0.111110     0.906250    Biso  1.000000 O
   O2754       1.0     0.791670     0.083330     0.760410    Biso  1.000000 O
   Mn918       1.0     0.805560     0.111110     0.166670    Biso  1.000000 Mn
   Li220       1.0     0.791670     0.083330     0.500000    Biso  1.000000 Li
   Li221       1.0     0.819440     0.097220     0.833330    Biso  1.000000 Li
   Na1378      1.0     0.791670     0.125000     0.000000    Biso  1.000000 Na
   Na1379      1.0     0.819440     0.138890     0.333330    Biso  1.000000 Na
   Na1380      1.0     0.805560     0.152780     0.666670    Biso  1.000000 Na
   O2755       1.0     0.791670     0.125000     0.239590    Biso  1.000000 O
   O2756       1.0     0.819440     0.138890     0.093750    Biso  1.000000 O
   O2757       1.0     0.819440     0.138890     0.572920    Biso  1.000000 O
   O2758       1.0     0.805560     0.152780     0.427080    Biso  1.000000 O
   O2759       1.0     0.805560     0.152780     0.906250    Biso  1.000000 O
   O2760       1.0     0.791670     0.125000     0.760410    Biso  1.000000 O
   Li222       1.0     0.805560     0.152780     0.166670    Biso  1.000000 Li
   Mn919       1.0     0.791670     0.125000     0.500000    Biso  1.000000 Mn
   Mn920       1.0     0.819440     0.138890     0.833330    Biso  1.000000 Mn
   Na1381      1.0     0.791670     0.166670     0.000000    Biso  1.000000 Na
   Na1382      1.0     0.819440     0.180560     0.333330    Biso  1.000000 Na
   Na1383      1.0     0.805560     0.194440     0.666670    Biso  1.000000 Na
   O2761       1.0     0.791670     0.166670     0.239590    Biso  1.000000 O
   O2762       1.0     0.819440     0.180560     0.093750    Biso  1.000000 O
   O2763       1.0     0.819440     0.180560     0.572920    Biso  1.000000 O
   O2764       1.0     0.805560     0.194440     0.427080    Biso  1.000000 O
   O2765       1.0     0.805560     0.194440     0.906250    Biso  1.000000 O
   O2766       1.0     0.791670     0.166670     0.760410    Biso  1.000000 O
   Mn921       1.0     0.805560     0.194440     0.166670    Biso  1.000000 Mn
   Mn922       1.0     0.791670     0.166670     0.500000    Biso  1.000000 Mn
   Mn923       1.0     0.819440     0.180560     0.833330    Biso  1.000000 Mn
   Na1384      1.0     0.791670     0.208330     0.000000    Biso  1.000000 Na
   Na1385      1.0     0.819440     0.222220     0.333330    Biso  1.000000 Na
   Na1386      1.0     0.805560     0.236110     0.666670    Biso  1.000000 Na
   O2767       1.0     0.791670     0.208330     0.239590    Biso  1.000000 O
   O2768       1.0     0.819440     0.222220     0.093750    Biso  1.000000 O
   O2769       1.0     0.819440     0.222220     0.572920    Biso  1.000000 O
   O2770       1.0     0.805560     0.236110     0.427080    Biso  1.000000 O
   O2771       1.0     0.805560     0.236110     0.906250    Biso  1.000000 O
   O2772       1.0     0.791670     0.208330     0.760410    Biso  1.000000 O
   Mn924       1.0     0.805560     0.236110     0.166670    Biso  1.000000 Mn
   Li223       1.0     0.791670     0.208330     0.500000    Biso  1.000000 Li
   Li224       1.0     0.819440     0.222220     0.833330    Biso  1.000000 Li
   Na1387      1.0     0.791670     0.250000     0.000000    Biso  1.000000 Na
   Na1388      1.0     0.819440     0.263890     0.333330    Biso  1.000000 Na
   Na1389      1.0     0.805560     0.277780     0.666670    Biso  1.000000 Na
   O2773       1.0     0.791670     0.250000     0.239590    Biso  1.000000 O
   O2774       1.0     0.819440     0.263890     0.093750    Biso  1.000000 O
   O2775       1.0     0.819440     0.263890     0.572920    Biso  1.000000 O
   O2776       1.0     0.805560     0.277780     0.427080    Biso  1.000000 O
   O2777       1.0     0.805560     0.277780     0.906250    Biso  1.000000 O
   O2778       1.0     0.791670     0.250000     0.760410    Biso  1.000000 O
   Li225       1.0     0.805560     0.277780     0.166670    Biso  1.000000 Li
   Mn925       1.0     0.791670     0.250000     0.500000    Biso  1.000000 Mn
   Mn926       1.0     0.819440     0.263890     0.833330    Biso  1.000000 Mn
   Na1390      1.0     0.791670     0.291670     0.000000    Biso  1.000000 Na
   Na1391      1.0     0.819440     0.305560     0.333330    Biso  1.000000 Na
   Na1392      1.0     0.805560     0.319440     0.666670    Biso  1.000000 Na
   O2779       1.0     0.791670     0.291670     0.239590    Biso  1.000000 O
   O2780       1.0     0.819440     0.305560     0.093750    Biso  1.000000 O
   O2781       1.0     0.819440     0.305560     0.572920    Biso  1.000000 O
   O2782       1.0     0.805560     0.319440     0.427080    Biso  1.000000 O
   O2783       1.0     0.805560     0.319440     0.906250    Biso  1.000000 O
   O2784       1.0     0.791670     0.291670     0.760410    Biso  1.000000 O
   Mn927       1.0     0.805560     0.319440     0.166670    Biso  1.000000 Mn
   Mn928       1.0     0.791670     0.291670     0.500000    Biso  1.000000 Mn
   Mn929       1.0     0.819440     0.305560     0.833330    Biso  1.000000 Mn
   Na1393      1.0     0.791670     0.333330     0.000000    Biso  1.000000 Na
   Na1394      1.0     0.819440     0.347220     0.333330    Biso  1.000000 Na
   Na1395      1.0     0.805560     0.361110     0.666670    Biso  1.000000 Na
   O2785       1.0     0.791670     0.333330     0.239590    Biso  1.000000 O
   O2786       1.0     0.819440     0.347220     0.093750    Biso  1.000000 O
   O2787       1.0     0.819440     0.347220     0.572920    Biso  1.000000 O
   O2788       1.0     0.805560     0.361110     0.427080    Biso  1.000000 O
   O2789       1.0     0.805560     0.361110     0.906250    Biso  1.000000 O
   O2790       1.0     0.791670     0.333330     0.760410    Biso  1.000000 O
   Mn930       1.0     0.805560     0.361110     0.166670    Biso  1.000000 Mn
   Li226       1.0     0.791670     0.333330     0.500000    Biso  1.000000 Li
   Li227       1.0     0.819440     0.347220     0.833330    Biso  1.000000 Li
   Na1396      1.0     0.791670     0.375000     0.000000    Biso  1.000000 Na
   Na1397      1.0     0.819440     0.388890     0.333330    Biso  1.000000 Na
   Na1398      1.0     0.805560     0.402780     0.666670    Biso  1.000000 Na
   O2791       1.0     0.791670     0.375000     0.239590    Biso  1.000000 O
   O2792       1.0     0.819440     0.388890     0.093750    Biso  1.000000 O
   O2793       1.0     0.819440     0.388890     0.572920    Biso  1.000000 O
   O2794       1.0     0.805560     0.402780     0.427080    Biso  1.000000 O
   O2795       1.0     0.805560     0.402780     0.906250    Biso  1.000000 O
   O2796       1.0     0.791670     0.375000     0.760410    Biso  1.000000 O
   Mn931       1.0     0.805560     0.402780     0.166670    Biso  1.000000 Mn
   Mn932       1.0     0.791670     0.375000     0.500000    Biso  1.000000 Mn
   Mn933       1.0     0.819440     0.388890     0.833330    Biso  1.000000 Mn
   Na1399      1.0     0.791670     0.416670     0.000000    Biso  1.000000 Na
   Na1400      1.0     0.819440     0.430560     0.333330    Biso  1.000000 Na
   Na1401      1.0     0.805560     0.444440     0.666670    Biso  1.000000 Na
   O2797       1.0     0.791670     0.416670     0.239590    Biso  1.000000 O
   O2798       1.0     0.819440     0.430560     0.093750    Biso  1.000000 O
   O2799       1.0     0.819440     0.430560     0.572920    Biso  1.000000 O
   O2800       1.0     0.805560     0.444440     0.427080    Biso  1.000000 O
   O2801       1.0     0.805560     0.444440     0.906250    Biso  1.000000 O
   O2802       1.0     0.791670     0.416670     0.760410    Biso  1.000000 O
   Li228       1.0     0.805560     0.444440     0.166670    Biso  1.000000 Li
   Mn934       1.0     0.791670     0.416670     0.500000    Biso  1.000000 Mn
   Mn935       1.0     0.819440     0.430560     0.833330    Biso  1.000000 Mn
   Na1402      1.0     0.791670     0.458330     0.000000    Biso  1.000000 Na
   Na1403      1.0     0.819440     0.472220     0.333330    Biso  1.000000 Na
   Na1404      1.0     0.805560     0.486110     0.666670    Biso  1.000000 Na
   O2803       1.0     0.791670     0.458330     0.239590    Biso  1.000000 O
   O2804       1.0     0.819440     0.472220     0.093750    Biso  1.000000 O
   O2805       1.0     0.819440     0.472220     0.572920    Biso  1.000000 O
   O2806       1.0     0.805560     0.486110     0.427080    Biso  1.000000 O
   O2807       1.0     0.805560     0.486110     0.906250    Biso  1.000000 O
   O2808       1.0     0.791670     0.458330     0.760410    Biso  1.000000 O
   Mn936       1.0     0.805560     0.486110     0.166670    Biso  1.000000 Mn
   Li229       1.0     0.791670     0.458330     0.500000    Biso  1.000000 Li
   Li230       1.0     0.819440     0.472220     0.833330    Biso  1.000000 Li
   Na1405      1.0     0.791670     0.500000     0.000000    Biso  1.000000 Na
   Na1406      1.0     0.819440     0.513890     0.333330    Biso  1.000000 Na
   Na1407      1.0     0.805560     0.527780     0.666670    Biso  1.000000 Na
   O2809       1.0     0.791670     0.500000     0.239590    Biso  1.000000 O
   O2810       1.0     0.819440     0.513890     0.093750    Biso  1.000000 O
   O2811       1.0     0.819440     0.513890     0.572920    Biso  1.000000 O
   O2812       1.0     0.805560     0.527780     0.427080    Biso  1.000000 O
   O2813       1.0     0.805560     0.527780     0.906250    Biso  1.000000 O
   O2814       1.0     0.791670     0.500000     0.760410    Biso  1.000000 O
   Mn937       1.0     0.805560     0.527780     0.166670    Biso  1.000000 Mn
   Mn938       1.0     0.791670     0.500000     0.500000    Biso  1.000000 Mn
   Mn939       1.0     0.819440     0.513890     0.833330    Biso  1.000000 Mn
   Na1408      1.0     0.791670     0.541670     0.000000    Biso  1.000000 Na
   Na1409      1.0     0.819440     0.555560     0.333330    Biso  1.000000 Na
   Na1410      1.0     0.805560     0.569440     0.666670    Biso  1.000000 Na
   O2815       1.0     0.791670     0.541670     0.239590    Biso  1.000000 O
   O2816       1.0     0.819440     0.555560     0.093750    Biso  1.000000 O
   O2817       1.0     0.819440     0.555560     0.572920    Biso  1.000000 O
   O2818       1.0     0.805560     0.569440     0.427080    Biso  1.000000 O
   O2819       1.0     0.805560     0.569440     0.906250    Biso  1.000000 O
   O2820       1.0     0.791670     0.541670     0.760410    Biso  1.000000 O
   Li231       1.0     0.805560     0.569440     0.166670    Biso  1.000000 Li
   Mn940       1.0     0.791670     0.541670     0.500000    Biso  1.000000 Mn
   Mn941       1.0     0.819440     0.555560     0.833330    Biso  1.000000 Mn
   Na1411      1.0     0.791670     0.583330     0.000000    Biso  1.000000 Na
   Na1412      1.0     0.819440     0.597220     0.333330    Biso  1.000000 Na
   Na1413      1.0     0.805560     0.611110     0.666670    Biso  1.000000 Na
   O2821       1.0     0.791670     0.583330     0.239590    Biso  1.000000 O
   O2822       1.0     0.819440     0.597220     0.093750    Biso  1.000000 O
   O2823       1.0     0.819440     0.597220     0.572920    Biso  1.000000 O
   O2824       1.0     0.805560     0.611110     0.427080    Biso  1.000000 O
   O2825       1.0     0.805560     0.611110     0.906250    Biso  1.000000 O
   O2826       1.0     0.791670     0.583330     0.760410    Biso  1.000000 O
   Mn942       1.0     0.805560     0.611110     0.166670    Biso  1.000000 Mn
   Ni239       1.0     0.791670     0.583330     0.500000    Biso  1.000000 Ni
   Ni240       1.0     0.819440     0.597220     0.833330    Biso  1.000000 Ni
   Na1414      1.0     0.791670     0.625000     0.000000    Biso  1.000000 Na
   Na1415      1.0     0.819440     0.638890     0.333330    Biso  1.000000 Na
   Na1416      1.0     0.805560     0.652780     0.666670    Biso  1.000000 Na
   O2827       1.0     0.791670     0.625000     0.239590    Biso  1.000000 O
   O2828       1.0     0.819440     0.638890     0.093750    Biso  1.000000 O
   O2829       1.0     0.819440     0.638890     0.572920    Biso  1.000000 O
   O2830       1.0     0.805560     0.652780     0.427080    Biso  1.000000 O
   O2831       1.0     0.805560     0.652780     0.906250    Biso  1.000000 O
   O2832       1.0     0.791670     0.625000     0.760410    Biso  1.000000 O
   Ni241       1.0     0.805560     0.652780     0.166670    Biso  1.000000 Ni
   Mn943       1.0     0.791670     0.625000     0.500000    Biso  1.000000 Mn
   Mn944       1.0     0.819440     0.638890     0.833330    Biso  1.000000 Mn
   Na1417      1.0     0.791670     0.666670     0.000000    Biso  1.000000 Na
   Na1418      1.0     0.819440     0.680560     0.333330    Biso  1.000000 Na
   Na1419      1.0     0.805560     0.694440     0.666670    Biso  1.000000 Na
   O2833       1.0     0.791670     0.666670     0.239590    Biso  1.000000 O
   O2834       1.0     0.819440     0.680560     0.093750    Biso  1.000000 O
   O2835       1.0     0.819440     0.680560     0.572920    Biso  1.000000 O
   O2836       1.0     0.805560     0.694440     0.427080    Biso  1.000000 O
   O2837       1.0     0.805560     0.694440     0.906250    Biso  1.000000 O
   O2838       1.0     0.791670     0.666670     0.760410    Biso  1.000000 O
   Mn945       1.0     0.805560     0.694440     0.166670    Biso  1.000000 Mn
   Mn946       1.0     0.791670     0.666670     0.500000    Biso  1.000000 Mn
   Ni242       1.0     0.819440     0.680560     0.833330    Biso  1.000000 Ni
   Na1420      1.0     0.791670     0.708330     0.000000    Biso  1.000000 Na
   Na1421      1.0     0.819440     0.722220     0.333330    Biso  1.000000 Na
   Na1422      1.0     0.805560     0.736110     0.666670    Biso  1.000000 Na
   O2839       1.0     0.791670     0.708330     0.239590    Biso  1.000000 O
   O2840       1.0     0.819440     0.722220     0.093750    Biso  1.000000 O
   O2841       1.0     0.819440     0.722220     0.572920    Biso  1.000000 O
   O2842       1.0     0.805560     0.736110     0.427080    Biso  1.000000 O
   O2843       1.0     0.805560     0.736110     0.906250    Biso  1.000000 O
   O2844       1.0     0.791670     0.708330     0.760410    Biso  1.000000 O
   Mn947       1.0     0.805560     0.736110     0.166670    Biso  1.000000 Mn
   Ni243       1.0     0.791670     0.708330     0.500000    Biso  1.000000 Ni
   Ni244       1.0     0.819440     0.722220     0.833330    Biso  1.000000 Ni
   Na1423      1.0     0.791670     0.750000     0.000000    Biso  1.000000 Na
   Na1424      1.0     0.819440     0.763890     0.333330    Biso  1.000000 Na
   Na1425      1.0     0.805560     0.777780     0.666670    Biso  1.000000 Na
   O2845       1.0     0.791670     0.750000     0.239590    Biso  1.000000 O
   O2846       1.0     0.819440     0.763890     0.093750    Biso  1.000000 O
   O2847       1.0     0.819440     0.763890     0.572920    Biso  1.000000 O
   O2848       1.0     0.805560     0.777780     0.427080    Biso  1.000000 O
   O2849       1.0     0.805560     0.777780     0.906250    Biso  1.000000 O
   O2850       1.0     0.791670     0.750000     0.760410    Biso  1.000000 O
   Ni245       1.0     0.805560     0.777780     0.166670    Biso  1.000000 Ni
   Mn948       1.0     0.791670     0.750000     0.500000    Biso  1.000000 Mn
   Mn949       1.0     0.819440     0.763890     0.833330    Biso  1.000000 Mn
   Na1426      1.0     0.791670     0.791670     0.000000    Biso  1.000000 Na
   Na1427      1.0     0.819440     0.805560     0.333330    Biso  1.000000 Na
   Na1428      1.0     0.805560     0.819440     0.666670    Biso  1.000000 Na
   O2851       1.0     0.791670     0.791670     0.239590    Biso  1.000000 O
   O2852       1.0     0.819440     0.805560     0.093750    Biso  1.000000 O
   O2853       1.0     0.819440     0.805560     0.572920    Biso  1.000000 O
   O2854       1.0     0.805560     0.819440     0.427080    Biso  1.000000 O
   O2855       1.0     0.805560     0.819440     0.906250    Biso  1.000000 O
   O2856       1.0     0.791670     0.791670     0.760410    Biso  1.000000 O
   Mn950       1.0     0.805560     0.819440     0.166670    Biso  1.000000 Mn
   Mn951       1.0     0.791670     0.791670     0.500000    Biso  1.000000 Mn
   Mn952       1.0     0.819440     0.805560     0.833330    Biso  1.000000 Mn
   Na1429      1.0     0.791670     0.833330     0.000000    Biso  1.000000 Na
   Na1430      1.0     0.819440     0.847220     0.333330    Biso  1.000000 Na
   Na1431      1.0     0.805560     0.861110     0.666670    Biso  1.000000 Na
   O2857       1.0     0.791670     0.833330     0.239590    Biso  1.000000 O
   O2858       1.0     0.819440     0.847220     0.093750    Biso  1.000000 O
   O2859       1.0     0.819440     0.847220     0.572920    Biso  1.000000 O
   O2860       1.0     0.805560     0.861110     0.427080    Biso  1.000000 O
   O2861       1.0     0.805560     0.861110     0.906250    Biso  1.000000 O
   O2862       1.0     0.791670     0.833330     0.760410    Biso  1.000000 O
   Mn953       1.0     0.805560     0.861110     0.166670    Biso  1.000000 Mn
   Li232       1.0     0.791670     0.833330     0.500000    Biso  1.000000 Li
   Li233       1.0     0.819440     0.847220     0.833330    Biso  1.000000 Li
   Na1432      1.0     0.791670     0.875000     0.000000    Biso  1.000000 Na
   Na1433      1.0     0.819440     0.888890     0.333330    Biso  1.000000 Na
   Na1434      1.0     0.805560     0.902780     0.666670    Biso  1.000000 Na
   O2863       1.0     0.791670     0.875000     0.239590    Biso  1.000000 O
   O2864       1.0     0.819440     0.888890     0.093750    Biso  1.000000 O
   O2865       1.0     0.819440     0.888890     0.572920    Biso  1.000000 O
   O2866       1.0     0.805560     0.902780     0.427080    Biso  1.000000 O
   O2867       1.0     0.805560     0.902780     0.906250    Biso  1.000000 O
   O2868       1.0     0.791670     0.875000     0.760410    Biso  1.000000 O
   Li234       1.0     0.805560     0.902780     0.166670    Biso  1.000000 Li
   Mn954       1.0     0.791670     0.875000     0.500000    Biso  1.000000 Mn
   Mn955       1.0     0.819440     0.888890     0.833330    Biso  1.000000 Mn
   Na1435      1.0     0.791670     0.916670     0.000000    Biso  1.000000 Na
   Na1436      1.0     0.819440     0.930560     0.333330    Biso  1.000000 Na
   Na1437      1.0     0.805560     0.944440     0.666670    Biso  1.000000 Na
   O2869       1.0     0.791670     0.916670     0.239590    Biso  1.000000 O
   O2870       1.0     0.819440     0.930560     0.093750    Biso  1.000000 O
   O2871       1.0     0.819440     0.930560     0.572920    Biso  1.000000 O
   O2872       1.0     0.805560     0.944440     0.427080    Biso  1.000000 O
   O2873       1.0     0.805560     0.944440     0.906250    Biso  1.000000 O
   O2874       1.0     0.791670     0.916670     0.760410    Biso  1.000000 O
   Mn956       1.0     0.805560     0.944440     0.166670    Biso  1.000000 Mn
   Mn957       1.0     0.791670     0.916670     0.500000    Biso  1.000000 Mn
   Mn958       1.0     0.819440     0.930560     0.833330    Biso  1.000000 Mn
   Na1438      1.0     0.791670     0.958330     0.000000    Biso  1.000000 Na
   Na1439      1.0     0.819440     0.972220     0.333330    Biso  1.000000 Na
   Na1440      1.0     0.805560     0.986110     0.666670    Biso  1.000000 Na
   O2875       1.0     0.791670     0.958330     0.239590    Biso  1.000000 O
   O2876       1.0     0.819440     0.972220     0.093750    Biso  1.000000 O
   O2877       1.0     0.819440     0.972220     0.572920    Biso  1.000000 O
   O2878       1.0     0.805560     0.986110     0.427080    Biso  1.000000 O
   O2879       1.0     0.805560     0.986110     0.906250    Biso  1.000000 O
   O2880       1.0     0.791670     0.958330     0.760410    Biso  1.000000 O
   Mn959       1.0     0.805560     0.986110     0.166670    Biso  1.000000 Mn
   Li235       1.0     0.791670     0.958330     0.500000    Biso  1.000000 Li
   Li236       1.0     0.819440     0.972220     0.833330    Biso  1.000000 Li
   Na1441      1.0     0.833330     0.000000     0.000000    Biso  1.000000 Na
   Na1442      1.0     0.861110     0.013890     0.333330    Biso  1.000000 Na
   Na1443      1.0     0.847220     0.027780     0.666670    Biso  1.000000 Na
   O2881       1.0     0.833330     0.000000     0.239590    Biso  1.000000 O
   O2882       1.0     0.861110     0.013890     0.093750    Biso  1.000000 O
   O2883       1.0     0.861110     0.013890     0.572920    Biso  1.000000 O
   O2884       1.0     0.847220     0.027780     0.427080    Biso  1.000000 O
   O2885       1.0     0.847220     0.027780     0.906250    Biso  1.000000 O
   O2886       1.0     0.833330     0.000000     0.760410    Biso  1.000000 O
   Mn960       1.0     0.847220     0.027780     0.166670    Biso  1.000000 Mn
   Mn961       1.0     0.833330     0.000000     0.500000    Biso  1.000000 Mn
   Mn962       1.0     0.861110     0.013890     0.833330    Biso  1.000000 Mn
   Na1444      1.0     0.833330     0.041670     0.000000    Biso  1.000000 Na
   Na1445      1.0     0.861110     0.055560     0.333330    Biso  1.000000 Na
   Na1446      1.0     0.847220     0.069440     0.666670    Biso  1.000000 Na
   O2887       1.0     0.833330     0.041670     0.239590    Biso  1.000000 O
   O2888       1.0     0.861110     0.055560     0.093750    Biso  1.000000 O
   O2889       1.0     0.861110     0.055560     0.572920    Biso  1.000000 O
   O2890       1.0     0.847220     0.069440     0.427080    Biso  1.000000 O
   O2891       1.0     0.847220     0.069440     0.906250    Biso  1.000000 O
   O2892       1.0     0.833330     0.041670     0.760410    Biso  1.000000 O
   Mn963       1.0     0.847220     0.069440     0.166670    Biso  1.000000 Mn
   Li237       1.0     0.833330     0.041670     0.500000    Biso  1.000000 Li
   Li238       1.0     0.861110     0.055560     0.833330    Biso  1.000000 Li
   Na1447      1.0     0.833330     0.083330     0.000000    Biso  1.000000 Na
   Na1448      1.0     0.861110     0.097220     0.333330    Biso  1.000000 Na
   Na1449      1.0     0.847220     0.111110     0.666670    Biso  1.000000 Na
   O2893       1.0     0.833330     0.083330     0.239590    Biso  1.000000 O
   O2894       1.0     0.861110     0.097220     0.093750    Biso  1.000000 O
   O2895       1.0     0.861110     0.097220     0.572920    Biso  1.000000 O
   O2896       1.0     0.847220     0.111110     0.427080    Biso  1.000000 O
   O2897       1.0     0.847220     0.111110     0.906250    Biso  1.000000 O
   O2898       1.0     0.833330     0.083330     0.760410    Biso  1.000000 O
   Li239       1.0     0.847220     0.111110     0.166670    Biso  1.000000 Li
   Mn964       1.0     0.833330     0.083330     0.500000    Biso  1.000000 Mn
   Mn965       1.0     0.861110     0.097220     0.833330    Biso  1.000000 Mn
   Na1450      1.0     0.833330     0.125000     0.000000    Biso  1.000000 Na
   Na1451      1.0     0.861110     0.138890     0.333330    Biso  1.000000 Na
   Na1452      1.0     0.847220     0.152780     0.666670    Biso  1.000000 Na
   O2899       1.0     0.833330     0.125000     0.239590    Biso  1.000000 O
   O2900       1.0     0.861110     0.138890     0.093750    Biso  1.000000 O
   O2901       1.0     0.861110     0.138890     0.572920    Biso  1.000000 O
   O2902       1.0     0.847220     0.152780     0.427080    Biso  1.000000 O
   O2903       1.0     0.847220     0.152780     0.906250    Biso  1.000000 O
   O2904       1.0     0.833330     0.125000     0.760410    Biso  1.000000 O
   Mn966       1.0     0.847220     0.152780     0.166670    Biso  1.000000 Mn
   Mn967       1.0     0.833330     0.125000     0.500000    Biso  1.000000 Mn
   Mn968       1.0     0.861110     0.138890     0.833330    Biso  1.000000 Mn
   Na1453      1.0     0.833330     0.166670     0.000000    Biso  1.000000 Na
   Na1454      1.0     0.861110     0.180560     0.333330    Biso  1.000000 Na
   Na1455      1.0     0.847220     0.194440     0.666670    Biso  1.000000 Na
   O2905       1.0     0.833330     0.166670     0.239590    Biso  1.000000 O
   O2906       1.0     0.861110     0.180560     0.093750    Biso  1.000000 O
   O2907       1.0     0.861110     0.180560     0.572920    Biso  1.000000 O
   O2908       1.0     0.847220     0.194440     0.427080    Biso  1.000000 O
   O2909       1.0     0.847220     0.194440     0.906250    Biso  1.000000 O
   O2910       1.0     0.833330     0.166670     0.760410    Biso  1.000000 O
   Mn969       1.0     0.847220     0.194440     0.166670    Biso  1.000000 Mn
   Li240       1.0     0.833330     0.166670     0.500000    Biso  1.000000 Li
   Li241       1.0     0.861110     0.180560     0.833330    Biso  1.000000 Li
   Na1456      1.0     0.833330     0.208330     0.000000    Biso  1.000000 Na
   Na1457      1.0     0.861110     0.222220     0.333330    Biso  1.000000 Na
   Na1458      1.0     0.847220     0.236110     0.666670    Biso  1.000000 Na
   O2911       1.0     0.833330     0.208330     0.239590    Biso  1.000000 O
   O2912       1.0     0.861110     0.222220     0.093750    Biso  1.000000 O
   O2913       1.0     0.861110     0.222220     0.572920    Biso  1.000000 O
   O2914       1.0     0.847220     0.236110     0.427080    Biso  1.000000 O
   O2915       1.0     0.847220     0.236110     0.906250    Biso  1.000000 O
   O2916       1.0     0.833330     0.208330     0.760410    Biso  1.000000 O
   Li242       1.0     0.847220     0.236110     0.166670    Biso  1.000000 Li
   Mn970       1.0     0.833330     0.208330     0.500000    Biso  1.000000 Mn
   Mn971       1.0     0.861110     0.222220     0.833330    Biso  1.000000 Mn
   Na1459      1.0     0.833330     0.250000     0.000000    Biso  1.000000 Na
   Na1460      1.0     0.861110     0.263890     0.333330    Biso  1.000000 Na
   Na1461      1.0     0.847220     0.277780     0.666670    Biso  1.000000 Na
   O2917       1.0     0.833330     0.250000     0.239590    Biso  1.000000 O
   O2918       1.0     0.861110     0.263890     0.093750    Biso  1.000000 O
   O2919       1.0     0.861110     0.263890     0.572920    Biso  1.000000 O
   O2920       1.0     0.847220     0.277780     0.427080    Biso  1.000000 O
   O2921       1.0     0.847220     0.277780     0.906250    Biso  1.000000 O
   O2922       1.0     0.833330     0.250000     0.760410    Biso  1.000000 O
   Mn972       1.0     0.847220     0.277780     0.166670    Biso  1.000000 Mn
   Mn973       1.0     0.833330     0.250000     0.500000    Biso  1.000000 Mn
   Mn974       1.0     0.861110     0.263890     0.833330    Biso  1.000000 Mn
   Na1462      1.0     0.833330     0.291670     0.000000    Biso  1.000000 Na
   Na1463      1.0     0.861110     0.305560     0.333330    Biso  1.000000 Na
   Na1464      1.0     0.847220     0.319440     0.666670    Biso  1.000000 Na
   O2923       1.0     0.833330     0.291670     0.239590    Biso  1.000000 O
   O2924       1.0     0.861110     0.305560     0.093750    Biso  1.000000 O
   O2925       1.0     0.861110     0.305560     0.572920    Biso  1.000000 O
   O2926       1.0     0.847220     0.319440     0.427080    Biso  1.000000 O
   O2927       1.0     0.847220     0.319440     0.906250    Biso  1.000000 O
   O2928       1.0     0.833330     0.291670     0.760410    Biso  1.000000 O
   Mn975       1.0     0.847220     0.319440     0.166670    Biso  1.000000 Mn
   Li243       1.0     0.833330     0.291670     0.500000    Biso  1.000000 Li
   Li244       1.0     0.861110     0.305560     0.833330    Biso  1.000000 Li
   Na1465      1.0     0.833330     0.333330     0.000000    Biso  1.000000 Na
   Na1466      1.0     0.861110     0.347220     0.333330    Biso  1.000000 Na
   Na1467      1.0     0.847220     0.361110     0.666670    Biso  1.000000 Na
   O2929       1.0     0.833330     0.333330     0.239590    Biso  1.000000 O
   O2930       1.0     0.861110     0.347220     0.093750    Biso  1.000000 O
   O2931       1.0     0.861110     0.347220     0.572920    Biso  1.000000 O
   O2932       1.0     0.847220     0.361110     0.427080    Biso  1.000000 O
   O2933       1.0     0.847220     0.361110     0.906250    Biso  1.000000 O
   O2934       1.0     0.833330     0.333330     0.760410    Biso  1.000000 O
   Mn976       1.0     0.847220     0.361110     0.166670    Biso  1.000000 Mn
   Mn977       1.0     0.833330     0.333330     0.500000    Biso  1.000000 Mn
   Mn978       1.0     0.861110     0.347220     0.833330    Biso  1.000000 Mn
   Na1468      1.0     0.833330     0.375000     0.000000    Biso  1.000000 Na
   Na1469      1.0     0.861110     0.388890     0.333330    Biso  1.000000 Na
   Na1470      1.0     0.847220     0.402780     0.666670    Biso  1.000000 Na
   O2935       1.0     0.833330     0.375000     0.239590    Biso  1.000000 O
   O2936       1.0     0.861110     0.388890     0.093750    Biso  1.000000 O
   O2937       1.0     0.861110     0.388890     0.572920    Biso  1.000000 O
   O2938       1.0     0.847220     0.402780     0.427080    Biso  1.000000 O
   O2939       1.0     0.847220     0.402780     0.906250    Biso  1.000000 O
   O2940       1.0     0.833330     0.375000     0.760410    Biso  1.000000 O
   Li245       1.0     0.847220     0.402780     0.166670    Biso  1.000000 Li
   Mn979       1.0     0.833330     0.375000     0.500000    Biso  1.000000 Mn
   Mn980       1.0     0.861110     0.388890     0.833330    Biso  1.000000 Mn
   Na1471      1.0     0.833330     0.416670     0.000000    Biso  1.000000 Na
   Na1472      1.0     0.861110     0.430560     0.333330    Biso  1.000000 Na
   Na1473      1.0     0.847220     0.444440     0.666670    Biso  1.000000 Na
   O2941       1.0     0.833330     0.416670     0.239590    Biso  1.000000 O
   O2942       1.0     0.861110     0.430560     0.093750    Biso  1.000000 O
   O2943       1.0     0.861110     0.430560     0.572920    Biso  1.000000 O
   O2944       1.0     0.847220     0.444440     0.427080    Biso  1.000000 O
   O2945       1.0     0.847220     0.444440     0.906250    Biso  1.000000 O
   O2946       1.0     0.833330     0.416670     0.760410    Biso  1.000000 O
   Mn981       1.0     0.847220     0.444440     0.166670    Biso  1.000000 Mn
   Li246       1.0     0.833330     0.416670     0.500000    Biso  1.000000 Li
   Li247       1.0     0.861110     0.430560     0.833330    Biso  1.000000 Li
   Na1474      1.0     0.833330     0.458330     0.000000    Biso  1.000000 Na
   Na1475      1.0     0.861110     0.472220     0.333330    Biso  1.000000 Na
   Na1476      1.0     0.847220     0.486110     0.666670    Biso  1.000000 Na
   O2947       1.0     0.833330     0.458330     0.239590    Biso  1.000000 O
   O2948       1.0     0.861110     0.472220     0.093750    Biso  1.000000 O
   O2949       1.0     0.861110     0.472220     0.572920    Biso  1.000000 O
   O2950       1.0     0.847220     0.486110     0.427080    Biso  1.000000 O
   O2951       1.0     0.847220     0.486110     0.906250    Biso  1.000000 O
   O2952       1.0     0.833330     0.458330     0.760410    Biso  1.000000 O
   Mn982       1.0     0.847220     0.486110     0.166670    Biso  1.000000 Mn
   Mn983       1.0     0.833330     0.458330     0.500000    Biso  1.000000 Mn
   Mn984       1.0     0.861110     0.472220     0.833330    Biso  1.000000 Mn
   Na1477      1.0     0.833330     0.500000     0.000000    Biso  1.000000 Na
   Na1478      1.0     0.861110     0.513890     0.333330    Biso  1.000000 Na
   Na1479      1.0     0.847220     0.527780     0.666670    Biso  1.000000 Na
   O2953       1.0     0.833330     0.500000     0.239590    Biso  1.000000 O
   O2954       1.0     0.861110     0.513890     0.093750    Biso  1.000000 O
   O2955       1.0     0.861110     0.513890     0.572920    Biso  1.000000 O
   O2956       1.0     0.847220     0.527780     0.427080    Biso  1.000000 O
   O2957       1.0     0.847220     0.527780     0.906250    Biso  1.000000 O
   O2958       1.0     0.833330     0.500000     0.760410    Biso  1.000000 O
   Li248       1.0     0.847220     0.527780     0.166670    Biso  1.000000 Li
   Mn985       1.0     0.833330     0.500000     0.500000    Biso  1.000000 Mn
   Mn986       1.0     0.861110     0.513890     0.833330    Biso  1.000000 Mn
   Na1480      1.0     0.833330     0.541670     0.000000    Biso  1.000000 Na
   Na1481      1.0     0.861110     0.555560     0.333330    Biso  1.000000 Na
   Na1482      1.0     0.847220     0.569440     0.666670    Biso  1.000000 Na
   O2959       1.0     0.833330     0.541670     0.239590    Biso  1.000000 O
   O2960       1.0     0.861110     0.555560     0.093750    Biso  1.000000 O
   O2961       1.0     0.861110     0.555560     0.572920    Biso  1.000000 O
   O2962       1.0     0.847220     0.569440     0.427080    Biso  1.000000 O
   O2963       1.0     0.847220     0.569440     0.906250    Biso  1.000000 O
   O2964       1.0     0.833330     0.541670     0.760410    Biso  1.000000 O
   Mn987       1.0     0.847220     0.569440     0.166670    Biso  1.000000 Mn
   Li249       1.0     0.833330     0.541670     0.500000    Biso  1.000000 Li
   Mn988       1.0     0.861110     0.555560     0.833330    Biso  1.000000 Mn
   Na1483      1.0     0.833330     0.583330     0.000000    Biso  1.000000 Na
   Na1484      1.0     0.861110     0.597220     0.333330    Biso  1.000000 Na
   Na1485      1.0     0.847220     0.611110     0.666670    Biso  1.000000 Na
   O2965       1.0     0.833330     0.583330     0.239590    Biso  1.000000 O
   O2966       1.0     0.861110     0.597220     0.093750    Biso  1.000000 O
   O2967       1.0     0.861110     0.597220     0.572920    Biso  1.000000 O
   O2968       1.0     0.847220     0.611110     0.427080    Biso  1.000000 O
   O2969       1.0     0.847220     0.611110     0.906250    Biso  1.000000 O
   O2970       1.0     0.833330     0.583330     0.760410    Biso  1.000000 O
   Mn989       1.0     0.847220     0.611110     0.166670    Biso  1.000000 Mn
   Mn990       1.0     0.833330     0.583330     0.500000    Biso  1.000000 Mn
   Li250       1.0     0.861110     0.597220     0.833330    Biso  1.000000 Li
   Na1486      1.0     0.833330     0.625000     0.000000    Biso  1.000000 Na
   Na1487      1.0     0.861110     0.638890     0.333330    Biso  1.000000 Na
   Na1488      1.0     0.847220     0.652780     0.666670    Biso  1.000000 Na
   O2971       1.0     0.833330     0.625000     0.239590    Biso  1.000000 O
   O2972       1.0     0.861110     0.638890     0.093750    Biso  1.000000 O
   O2973       1.0     0.861110     0.638890     0.572920    Biso  1.000000 O
   O2974       1.0     0.847220     0.652780     0.427080    Biso  1.000000 O
   O2975       1.0     0.847220     0.652780     0.906250    Biso  1.000000 O
   O2976       1.0     0.833330     0.625000     0.760410    Biso  1.000000 O
   Ni246       1.0     0.847220     0.652780     0.166670    Biso  1.000000 Ni
   Mn991       1.0     0.833330     0.625000     0.500000    Biso  1.000000 Mn
   Mn992       1.0     0.861110     0.638890     0.833330    Biso  1.000000 Mn
   Na1489      1.0     0.833330     0.666670     0.000000    Biso  1.000000 Na
   Na1490      1.0     0.861110     0.680560     0.333330    Biso  1.000000 Na
   Na1491      1.0     0.847220     0.694440     0.666670    Biso  1.000000 Na
   O2977       1.0     0.833330     0.666670     0.239590    Biso  1.000000 O
   O2978       1.0     0.861110     0.680560     0.093750    Biso  1.000000 O
   O2979       1.0     0.861110     0.680560     0.572920    Biso  1.000000 O
   O2980       1.0     0.847220     0.694440     0.427080    Biso  1.000000 O
   O2981       1.0     0.847220     0.694440     0.906250    Biso  1.000000 O
   O2982       1.0     0.833330     0.666670     0.760410    Biso  1.000000 O
   Mn993       1.0     0.847220     0.694440     0.166670    Biso  1.000000 Mn
   Ni247       1.0     0.833330     0.666670     0.500000    Biso  1.000000 Ni
   Mn994       1.0     0.861110     0.680560     0.833330    Biso  1.000000 Mn
   Na1492      1.0     0.833330     0.708330     0.000000    Biso  1.000000 Na
   Na1493      1.0     0.861110     0.722220     0.333330    Biso  1.000000 Na
   Na1494      1.0     0.847220     0.736110     0.666670    Biso  1.000000 Na
   O2983       1.0     0.833330     0.708330     0.239590    Biso  1.000000 O
   O2984       1.0     0.861110     0.722220     0.093750    Biso  1.000000 O
   O2985       1.0     0.861110     0.722220     0.572920    Biso  1.000000 O
   O2986       1.0     0.847220     0.736110     0.427080    Biso  1.000000 O
   O2987       1.0     0.847220     0.736110     0.906250    Biso  1.000000 O
   O2988       1.0     0.833330     0.708330     0.760410    Biso  1.000000 O
   Ni248       1.0     0.847220     0.736110     0.166670    Biso  1.000000 Ni
   Mn995       1.0     0.833330     0.708330     0.500000    Biso  1.000000 Mn
   Ni249       1.0     0.861110     0.722220     0.833330    Biso  1.000000 Ni
   Na1495      1.0     0.833330     0.750000     0.000000    Biso  1.000000 Na
   Na1496      1.0     0.861110     0.763890     0.333330    Biso  1.000000 Na
   Na1497      1.0     0.847220     0.777780     0.666670    Biso  1.000000 Na
   O2989       1.0     0.833330     0.750000     0.239590    Biso  1.000000 O
   O2990       1.0     0.861110     0.763890     0.093750    Biso  1.000000 O
   O2991       1.0     0.861110     0.763890     0.572920    Biso  1.000000 O
   O2992       1.0     0.847220     0.777780     0.427080    Biso  1.000000 O
   O2993       1.0     0.847220     0.777780     0.906250    Biso  1.000000 O
   O2994       1.0     0.833330     0.750000     0.760410    Biso  1.000000 O
   Mn996       1.0     0.847220     0.777780     0.166670    Biso  1.000000 Mn
   Mn997       1.0     0.833330     0.750000     0.500000    Biso  1.000000 Mn
   Mn998       1.0     0.861110     0.763890     0.833330    Biso  1.000000 Mn
   Na1498      1.0     0.833330     0.791670     0.000000    Biso  1.000000 Na
   Na1499      1.0     0.861110     0.805560     0.333330    Biso  1.000000 Na
   Na1500      1.0     0.847220     0.819440     0.666670    Biso  1.000000 Na
   O2995       1.0     0.833330     0.791670     0.239590    Biso  1.000000 O
   O2996       1.0     0.861110     0.805560     0.093750    Biso  1.000000 O
   O2997       1.0     0.861110     0.805560     0.572920    Biso  1.000000 O
   O2998       1.0     0.847220     0.819440     0.427080    Biso  1.000000 O
   O2999       1.0     0.847220     0.819440     0.906250    Biso  1.000000 O
   O3000       1.0     0.833330     0.791670     0.760410    Biso  1.000000 O
   Mn999       1.0     0.847220     0.819440     0.166670    Biso  1.000000 Mn
   Ni250       1.0     0.833330     0.791670     0.500000    Biso  1.000000 Ni
   Ni251       1.0     0.861110     0.805560     0.833330    Biso  1.000000 Ni
   Na1501      1.0     0.833330     0.833330     0.000000    Biso  1.000000 Na
   Na1502      1.0     0.861110     0.847220     0.333330    Biso  1.000000 Na
   Na1503      1.0     0.847220     0.861110     0.666670    Biso  1.000000 Na
   O3001       1.0     0.833330     0.833330     0.239590    Biso  1.000000 O
   O3002       1.0     0.861110     0.847220     0.093750    Biso  1.000000 O
   O3003       1.0     0.861110     0.847220     0.572920    Biso  1.000000 O
   O3004       1.0     0.847220     0.861110     0.427080    Biso  1.000000 O
   O3005       1.0     0.847220     0.861110     0.906250    Biso  1.000000 O
   O3006       1.0     0.833330     0.833330     0.760410    Biso  1.000000 O
   Ni252       1.0     0.847220     0.861110     0.166670    Biso  1.000000 Ni
   Mn1000      1.0     0.833330     0.833330     0.500000    Biso  1.000000 Mn
   Mn1001      1.0     0.861110     0.847220     0.833330    Biso  1.000000 Mn
   Na1504      1.0     0.833330     0.875000     0.000000    Biso  1.000000 Na
   Na1505      1.0     0.861110     0.888890     0.333330    Biso  1.000000 Na
   Na1506      1.0     0.847220     0.902780     0.666670    Biso  1.000000 Na
   O3007       1.0     0.833330     0.875000     0.239590    Biso  1.000000 O
   O3008       1.0     0.861110     0.888890     0.093750    Biso  1.000000 O
   O3009       1.0     0.861110     0.888890     0.572920    Biso  1.000000 O
   O3010       1.0     0.847220     0.902780     0.427080    Biso  1.000000 O
   O3011       1.0     0.847220     0.902780     0.906250    Biso  1.000000 O
   O3012       1.0     0.833330     0.875000     0.760410    Biso  1.000000 O
   Mn1002      1.0     0.847220     0.902780     0.166670    Biso  1.000000 Mn
   Mn1003      1.0     0.833330     0.875000     0.500000    Biso  1.000000 Mn
   Mn1004      1.0     0.861110     0.888890     0.833330    Biso  1.000000 Mn
   Na1507      1.0     0.833330     0.916670     0.000000    Biso  1.000000 Na
   Na1508      1.0     0.861110     0.930560     0.333330    Biso  1.000000 Na
   Na1509      1.0     0.847220     0.944440     0.666670    Biso  1.000000 Na
   O3013       1.0     0.833330     0.916670     0.239590    Biso  1.000000 O
   O3014       1.0     0.861110     0.930560     0.093750    Biso  1.000000 O
   O3015       1.0     0.861110     0.930560     0.572920    Biso  1.000000 O
   O3016       1.0     0.847220     0.944440     0.427080    Biso  1.000000 O
   O3017       1.0     0.847220     0.944440     0.906250    Biso  1.000000 O
   O3018       1.0     0.833330     0.916670     0.760410    Biso  1.000000 O
   Mn1005      1.0     0.847220     0.944440     0.166670    Biso  1.000000 Mn
   Li251       1.0     0.833330     0.916670     0.500000    Biso  1.000000 Li
   Li252       1.0     0.861110     0.930560     0.833330    Biso  1.000000 Li
   Na1510      1.0     0.833330     0.958330     0.000000    Biso  1.000000 Na
   Na1511      1.0     0.861110     0.972220     0.333330    Biso  1.000000 Na
   Na1512      1.0     0.847220     0.986110     0.666670    Biso  1.000000 Na
   O3019       1.0     0.833330     0.958330     0.239590    Biso  1.000000 O
   O3020       1.0     0.861110     0.972220     0.093750    Biso  1.000000 O
   O3021       1.0     0.861110     0.972220     0.572920    Biso  1.000000 O
   O3022       1.0     0.847220     0.986110     0.427080    Biso  1.000000 O
   O3023       1.0     0.847220     0.986110     0.906250    Biso  1.000000 O
   O3024       1.0     0.833330     0.958330     0.760410    Biso  1.000000 O
   Li253       1.0     0.847220     0.986110     0.166670    Biso  1.000000 Li
   Mn1006      1.0     0.833330     0.958330     0.500000    Biso  1.000000 Mn
   Mn1007      1.0     0.861110     0.972220     0.833330    Biso  1.000000 Mn
   Na1513      1.0     0.875000     0.000000     0.000000    Biso  1.000000 Na
   Na1514      1.0     0.902780     0.013890     0.333330    Biso  1.000000 Na
   Na1515      1.0     0.888890     0.027780     0.666670    Biso  1.000000 Na
   O3025       1.0     0.875000     0.000000     0.239590    Biso  1.000000 O
   O3026       1.0     0.902780     0.013890     0.093750    Biso  1.000000 O
   O3027       1.0     0.902780     0.013890     0.572920    Biso  1.000000 O
   O3028       1.0     0.888890     0.027780     0.427080    Biso  1.000000 O
   O3029       1.0     0.888890     0.027780     0.906250    Biso  1.000000 O
   O3030       1.0     0.875000     0.000000     0.760410    Biso  1.000000 O
   Mn1008      1.0     0.888890     0.027780     0.166670    Biso  1.000000 Mn
   Li254       1.0     0.875000     0.000000     0.500000    Biso  1.000000 Li
   Ni253       1.0     0.902780     0.013890     0.833330    Biso  1.000000 Ni
   Na1516      1.0     0.875000     0.041670     0.000000    Biso  1.000000 Na
   Na1517      1.0     0.902780     0.055560     0.333330    Biso  1.000000 Na
   Na1518      1.0     0.888890     0.069440     0.666670    Biso  1.000000 Na
   O3031       1.0     0.875000     0.041670     0.239590    Biso  1.000000 O
   O3032       1.0     0.902780     0.055560     0.093750    Biso  1.000000 O
   O3033       1.0     0.902780     0.055560     0.572920    Biso  1.000000 O
   O3034       1.0     0.888890     0.069440     0.427080    Biso  1.000000 O
   O3035       1.0     0.888890     0.069440     0.906250    Biso  1.000000 O
   O3036       1.0     0.875000     0.041670     0.760410    Biso  1.000000 O
   Li255       1.0     0.888890     0.069440     0.166670    Biso  1.000000 Li
   Mn1009      1.0     0.875000     0.041670     0.500000    Biso  1.000000 Mn
   Mn1010      1.0     0.902780     0.055560     0.833330    Biso  1.000000 Mn
   Na1519      1.0     0.875000     0.083330     0.000000    Biso  1.000000 Na
   Na1520      1.0     0.902780     0.097220     0.333330    Biso  1.000000 Na
   Na1521      1.0     0.888890     0.111110     0.666670    Biso  1.000000 Na
   O3037       1.0     0.875000     0.083330     0.239590    Biso  1.000000 O
   O3038       1.0     0.902780     0.097220     0.093750    Biso  1.000000 O
   O3039       1.0     0.902780     0.097220     0.572920    Biso  1.000000 O
   O3040       1.0     0.888890     0.111110     0.427080    Biso  1.000000 O
   O3041       1.0     0.888890     0.111110     0.906250    Biso  1.000000 O
   O3042       1.0     0.875000     0.083330     0.760410    Biso  1.000000 O
   Mn1011      1.0     0.888890     0.111110     0.166670    Biso  1.000000 Mn
   Mn1012      1.0     0.875000     0.083330     0.500000    Biso  1.000000 Mn
   Mn1013      1.0     0.902780     0.097220     0.833330    Biso  1.000000 Mn
   Na1522      1.0     0.875000     0.125000     0.000000    Biso  1.000000 Na
   Na1523      1.0     0.902780     0.138890     0.333330    Biso  1.000000 Na
   Na1524      1.0     0.888890     0.152780     0.666670    Biso  1.000000 Na
   O3043       1.0     0.875000     0.125000     0.239590    Biso  1.000000 O
   O3044       1.0     0.902780     0.138890     0.093750    Biso  1.000000 O
   O3045       1.0     0.902780     0.138890     0.572920    Biso  1.000000 O
   O3046       1.0     0.888890     0.152780     0.427080    Biso  1.000000 O
   O3047       1.0     0.888890     0.152780     0.906250    Biso  1.000000 O
   O3048       1.0     0.875000     0.125000     0.760410    Biso  1.000000 O
   Mn1014      1.0     0.888890     0.152780     0.166670    Biso  1.000000 Mn
   Li256       1.0     0.875000     0.125000     0.500000    Biso  1.000000 Li
   Ni254       1.0     0.902780     0.138890     0.833330    Biso  1.000000 Ni
   Na1525      1.0     0.875000     0.166670     0.000000    Biso  1.000000 Na
   Na1526      1.0     0.902780     0.180560     0.333330    Biso  1.000000 Na
   Na1527      1.0     0.888890     0.194440     0.666670    Biso  1.000000 Na
   O3049       1.0     0.875000     0.166670     0.239590    Biso  1.000000 O
   O3050       1.0     0.902780     0.180560     0.093750    Biso  1.000000 O
   O3051       1.0     0.902780     0.180560     0.572920    Biso  1.000000 O
   O3052       1.0     0.888890     0.194440     0.427080    Biso  1.000000 O
   O3053       1.0     0.888890     0.194440     0.906250    Biso  1.000000 O
   O3054       1.0     0.875000     0.166670     0.760410    Biso  1.000000 O
   Li257       1.0     0.888890     0.194440     0.166670    Biso  1.000000 Li
   Mn1015      1.0     0.875000     0.166670     0.500000    Biso  1.000000 Mn
   Mn1016      1.0     0.902780     0.180560     0.833330    Biso  1.000000 Mn
   Na1528      1.0     0.875000     0.208330     0.000000    Biso  1.000000 Na
   Na1529      1.0     0.902780     0.222220     0.333330    Biso  1.000000 Na
   Na1530      1.0     0.888890     0.236110     0.666670    Biso  1.000000 Na
   O3055       1.0     0.875000     0.208330     0.239590    Biso  1.000000 O
   O3056       1.0     0.902780     0.222220     0.093750    Biso  1.000000 O
   O3057       1.0     0.902780     0.222220     0.572920    Biso  1.000000 O
   O3058       1.0     0.888890     0.236110     0.427080    Biso  1.000000 O
   O3059       1.0     0.888890     0.236110     0.906250    Biso  1.000000 O
   O3060       1.0     0.875000     0.208330     0.760410    Biso  1.000000 O
   Mn1017      1.0     0.888890     0.236110     0.166670    Biso  1.000000 Mn
   Mn1018      1.0     0.875000     0.208330     0.500000    Biso  1.000000 Mn
   Mn1019      1.0     0.902780     0.222220     0.833330    Biso  1.000000 Mn
   Na1531      1.0     0.875000     0.250000     0.000000    Biso  1.000000 Na
   Na1532      1.0     0.902780     0.263890     0.333330    Biso  1.000000 Na
   Na1533      1.0     0.888890     0.277780     0.666670    Biso  1.000000 Na
   O3061       1.0     0.875000     0.250000     0.239590    Biso  1.000000 O
   O3062       1.0     0.902780     0.263890     0.093750    Biso  1.000000 O
   O3063       1.0     0.902780     0.263890     0.572920    Biso  1.000000 O
   O3064       1.0     0.888890     0.277780     0.427080    Biso  1.000000 O
   O3065       1.0     0.888890     0.277780     0.906250    Biso  1.000000 O
   O3066       1.0     0.875000     0.250000     0.760410    Biso  1.000000 O
   Mn1020      1.0     0.888890     0.277780     0.166670    Biso  1.000000 Mn
   Li258       1.0     0.875000     0.250000     0.500000    Biso  1.000000 Li
   Ni255       1.0     0.902780     0.263890     0.833330    Biso  1.000000 Ni
   Na1534      1.0     0.875000     0.291670     0.000000    Biso  1.000000 Na
   Na1535      1.0     0.902780     0.305560     0.333330    Biso  1.000000 Na
   Na1536      1.0     0.888890     0.319440     0.666670    Biso  1.000000 Na
   O3067       1.0     0.875000     0.291670     0.239590    Biso  1.000000 O
   O3068       1.0     0.902780     0.305560     0.093750    Biso  1.000000 O
   O3069       1.0     0.902780     0.305560     0.572920    Biso  1.000000 O
   O3070       1.0     0.888890     0.319440     0.427080    Biso  1.000000 O
   O3071       1.0     0.888890     0.319440     0.906250    Biso  1.000000 O
   O3072       1.0     0.875000     0.291670     0.760410    Biso  1.000000 O
   Mn1021      1.0     0.888890     0.319440     0.166670    Biso  1.000000 Mn
   Mn1022      1.0     0.875000     0.291670     0.500000    Biso  1.000000 Mn
   Mn1023      1.0     0.902780     0.305560     0.833330    Biso  1.000000 Mn
   Na1537      1.0     0.875000     0.333330     0.000000    Biso  1.000000 Na
   Na1538      1.0     0.902780     0.347220     0.333330    Biso  1.000000 Na
   Na1539      1.0     0.888890     0.361110     0.666670    Biso  1.000000 Na
   O3073       1.0     0.875000     0.333330     0.239590    Biso  1.000000 O
   O3074       1.0     0.902780     0.347220     0.093750    Biso  1.000000 O
   O3075       1.0     0.902780     0.347220     0.572920    Biso  1.000000 O
   O3076       1.0     0.888890     0.361110     0.427080    Biso  1.000000 O
   O3077       1.0     0.888890     0.361110     0.906250    Biso  1.000000 O
   O3078       1.0     0.875000     0.333330     0.760410    Biso  1.000000 O
   Li259       1.0     0.888890     0.361110     0.166670    Biso  1.000000 Li
   Mn1024      1.0     0.875000     0.333330     0.500000    Biso  1.000000 Mn
   Mn1025      1.0     0.902780     0.347220     0.833330    Biso  1.000000 Mn
   Na1540      1.0     0.875000     0.375000     0.000000    Biso  1.000000 Na
   Na1541      1.0     0.902780     0.388890     0.333330    Biso  1.000000 Na
   Na1542      1.0     0.888890     0.402780     0.666670    Biso  1.000000 Na
   O3079       1.0     0.875000     0.375000     0.239590    Biso  1.000000 O
   O3080       1.0     0.902780     0.388890     0.093750    Biso  1.000000 O
   O3081       1.0     0.902780     0.388890     0.572920    Biso  1.000000 O
   O3082       1.0     0.888890     0.402780     0.427080    Biso  1.000000 O
   O3083       1.0     0.888890     0.402780     0.906250    Biso  1.000000 O
   O3084       1.0     0.875000     0.375000     0.760410    Biso  1.000000 O
   Mn1026      1.0     0.888890     0.402780     0.166670    Biso  1.000000 Mn
   Li260       1.0     0.875000     0.375000     0.500000    Biso  1.000000 Li
   Li261       1.0     0.902780     0.388890     0.833330    Biso  1.000000 Li
   Na1543      1.0     0.875000     0.416670     0.000000    Biso  1.000000 Na
   Na1544      1.0     0.902780     0.430560     0.333330    Biso  1.000000 Na
   Na1545      1.0     0.888890     0.444440     0.666670    Biso  1.000000 Na
   O3085       1.0     0.875000     0.416670     0.239590    Biso  1.000000 O
   O3086       1.0     0.902780     0.430560     0.093750    Biso  1.000000 O
   O3087       1.0     0.902780     0.430560     0.572920    Biso  1.000000 O
   O3088       1.0     0.888890     0.444440     0.427080    Biso  1.000000 O
   O3089       1.0     0.888890     0.444440     0.906250    Biso  1.000000 O
   O3090       1.0     0.875000     0.416670     0.760410    Biso  1.000000 O
   Mn1027      1.0     0.888890     0.444440     0.166670    Biso  1.000000 Mn
   Mn1028      1.0     0.875000     0.416670     0.500000    Biso  1.000000 Mn
   Mn1029      1.0     0.902780     0.430560     0.833330    Biso  1.000000 Mn
   Na1546      1.0     0.875000     0.458330     0.000000    Biso  1.000000 Na
   Na1547      1.0     0.902780     0.472220     0.333330    Biso  1.000000 Na
   Na1548      1.0     0.888890     0.486110     0.666670    Biso  1.000000 Na
   O3091       1.0     0.875000     0.458330     0.239590    Biso  1.000000 O
   O3092       1.0     0.902780     0.472220     0.093750    Biso  1.000000 O
   O3093       1.0     0.902780     0.472220     0.572920    Biso  1.000000 O
   O3094       1.0     0.888890     0.486110     0.427080    Biso  1.000000 O
   O3095       1.0     0.888890     0.486110     0.906250    Biso  1.000000 O
   O3096       1.0     0.875000     0.458330     0.760410    Biso  1.000000 O
   Li262       1.0     0.888890     0.486110     0.166670    Biso  1.000000 Li
   Mn1030      1.0     0.875000     0.458330     0.500000    Biso  1.000000 Mn
   Mn1031      1.0     0.902780     0.472220     0.833330    Biso  1.000000 Mn
   Na1549      1.0     0.875000     0.500000     0.000000    Biso  1.000000 Na
   Na1550      1.0     0.902780     0.513890     0.333330    Biso  1.000000 Na
   Na1551      1.0     0.888890     0.527780     0.666670    Biso  1.000000 Na
   O3097       1.0     0.875000     0.500000     0.239590    Biso  1.000000 O
   O3098       1.0     0.902780     0.513890     0.093750    Biso  1.000000 O
   O3099       1.0     0.902780     0.513890     0.572920    Biso  1.000000 O
   O3100       1.0     0.888890     0.527780     0.427080    Biso  1.000000 O
   O3101       1.0     0.888890     0.527780     0.906250    Biso  1.000000 O
   O3102       1.0     0.875000     0.500000     0.760410    Biso  1.000000 O
   Mn1032      1.0     0.888890     0.527780     0.166670    Biso  1.000000 Mn
   Li263       1.0     0.875000     0.500000     0.500000    Biso  1.000000 Li
   Mn1033      1.0     0.902780     0.513890     0.833330    Biso  1.000000 Mn
   Na1552      1.0     0.875000     0.541670     0.000000    Biso  1.000000 Na
   Na1553      1.0     0.902780     0.555560     0.333330    Biso  1.000000 Na
   Na1554      1.0     0.888890     0.569440     0.666670    Biso  1.000000 Na
   O3103       1.0     0.875000     0.541670     0.239590    Biso  1.000000 O
   O3104       1.0     0.902780     0.555560     0.093750    Biso  1.000000 O
   O3105       1.0     0.902780     0.555560     0.572920    Biso  1.000000 O
   O3106       1.0     0.888890     0.569440     0.427080    Biso  1.000000 O
   O3107       1.0     0.888890     0.569440     0.906250    Biso  1.000000 O
   O3108       1.0     0.875000     0.541670     0.760410    Biso  1.000000 O
   Mn1034      1.0     0.888890     0.569440     0.166670    Biso  1.000000 Mn
   Mn1035      1.0     0.875000     0.541670     0.500000    Biso  1.000000 Mn
   Li264       1.0     0.902780     0.555560     0.833330    Biso  1.000000 Li
   Na1555      1.0     0.875000     0.583330     0.000000    Biso  1.000000 Na
   Na1556      1.0     0.902780     0.597220     0.333330    Biso  1.000000 Na
   Na1557      1.0     0.888890     0.611110     0.666670    Biso  1.000000 Na
   O3109       1.0     0.875000     0.583330     0.239590    Biso  1.000000 O
   O3110       1.0     0.902780     0.597220     0.093750    Biso  1.000000 O
   O3111       1.0     0.902780     0.597220     0.572920    Biso  1.000000 O
   O3112       1.0     0.888890     0.611110     0.427080    Biso  1.000000 O
   O3113       1.0     0.888890     0.611110     0.906250    Biso  1.000000 O
   O3114       1.0     0.875000     0.583330     0.760410    Biso  1.000000 O
   Li265       1.0     0.888890     0.611110     0.166670    Biso  1.000000 Li
   Mn1036      1.0     0.875000     0.583330     0.500000    Biso  1.000000 Mn
   Mn1037      1.0     0.902780     0.597220     0.833330    Biso  1.000000 Mn
   Na1558      1.0     0.875000     0.625000     0.000000    Biso  1.000000 Na
   Na1559      1.0     0.902780     0.638890     0.333330    Biso  1.000000 Na
   Na1560      1.0     0.888890     0.652780     0.666670    Biso  1.000000 Na
   O3115       1.0     0.875000     0.625000     0.239590    Biso  1.000000 O
   O3116       1.0     0.902780     0.638890     0.093750    Biso  1.000000 O
   O3117       1.0     0.902780     0.638890     0.572920    Biso  1.000000 O
   O3118       1.0     0.888890     0.652780     0.427080    Biso  1.000000 O
   O3119       1.0     0.888890     0.652780     0.906250    Biso  1.000000 O
   O3120       1.0     0.875000     0.625000     0.760410    Biso  1.000000 O
   Mn1038      1.0     0.888890     0.652780     0.166670    Biso  1.000000 Mn
   Li266       1.0     0.875000     0.625000     0.500000    Biso  1.000000 Li
   Mn1039      1.0     0.902780     0.638890     0.833330    Biso  1.000000 Mn
   Na1561      1.0     0.875000     0.666670     0.000000    Biso  1.000000 Na
   Na1562      1.0     0.902780     0.680560     0.333330    Biso  1.000000 Na
   Na1563      1.0     0.888890     0.694440     0.666670    Biso  1.000000 Na
   O3121       1.0     0.875000     0.666670     0.239590    Biso  1.000000 O
   O3122       1.0     0.902780     0.680560     0.093750    Biso  1.000000 O
   O3123       1.0     0.902780     0.680560     0.572920    Biso  1.000000 O
   O3124       1.0     0.888890     0.694440     0.427080    Biso  1.000000 O
   O3125       1.0     0.888890     0.694440     0.906250    Biso  1.000000 O
   O3126       1.0     0.875000     0.666670     0.760410    Biso  1.000000 O
   Mn1040      1.0     0.888890     0.694440     0.166670    Biso  1.000000 Mn
   Mn1041      1.0     0.875000     0.666670     0.500000    Biso  1.000000 Mn
   Li267       1.0     0.902780     0.680560     0.833330    Biso  1.000000 Li
   Na1564      1.0     0.875000     0.708330     0.000000    Biso  1.000000 Na
   Na1565      1.0     0.902780     0.722220     0.333330    Biso  1.000000 Na
   Na1566      1.0     0.888890     0.736110     0.666670    Biso  1.000000 Na
   O3127       1.0     0.875000     0.708330     0.239590    Biso  1.000000 O
   O3128       1.0     0.902780     0.722220     0.093750    Biso  1.000000 O
   O3129       1.0     0.902780     0.722220     0.572920    Biso  1.000000 O
   O3130       1.0     0.888890     0.736110     0.427080    Biso  1.000000 O
   O3131       1.0     0.888890     0.736110     0.906250    Biso  1.000000 O
   O3132       1.0     0.875000     0.708330     0.760410    Biso  1.000000 O
   Mn1042      1.0     0.888890     0.736110     0.166670    Biso  1.000000 Mn
   Mn1043      1.0     0.875000     0.708330     0.500000    Biso  1.000000 Mn
   Mn1044      1.0     0.902780     0.722220     0.833330    Biso  1.000000 Mn
   Na1567      1.0     0.875000     0.750000     0.000000    Biso  1.000000 Na
   Na1568      1.0     0.902780     0.763890     0.333330    Biso  1.000000 Na
   Na1569      1.0     0.888890     0.777780     0.666670    Biso  1.000000 Na
   O3133       1.0     0.875000     0.750000     0.239590    Biso  1.000000 O
   O3134       1.0     0.902780     0.763890     0.093750    Biso  1.000000 O
   O3135       1.0     0.902780     0.763890     0.572920    Biso  1.000000 O
   O3136       1.0     0.888890     0.777780     0.427080    Biso  1.000000 O
   O3137       1.0     0.888890     0.777780     0.906250    Biso  1.000000 O
   O3138       1.0     0.875000     0.750000     0.760410    Biso  1.000000 O
   Mn1045      1.0     0.888890     0.777780     0.166670    Biso  1.000000 Mn
   Ni256       1.0     0.875000     0.750000     0.500000    Biso  1.000000 Ni
   Mn1046      1.0     0.902780     0.763890     0.833330    Biso  1.000000 Mn
   Na1570      1.0     0.875000     0.791670     0.000000    Biso  1.000000 Na
   Na1571      1.0     0.902780     0.805560     0.333330    Biso  1.000000 Na
   Na1572      1.0     0.888890     0.819440     0.666670    Biso  1.000000 Na
   O3139       1.0     0.875000     0.791670     0.239590    Biso  1.000000 O
   O3140       1.0     0.902780     0.805560     0.093750    Biso  1.000000 O
   O3141       1.0     0.902780     0.805560     0.572920    Biso  1.000000 O
   O3142       1.0     0.888890     0.819440     0.427080    Biso  1.000000 O
   O3143       1.0     0.888890     0.819440     0.906250    Biso  1.000000 O
   O3144       1.0     0.875000     0.791670     0.760410    Biso  1.000000 O
   Ni257       1.0     0.888890     0.819440     0.166670    Biso  1.000000 Ni
   Mn1047      1.0     0.875000     0.791670     0.500000    Biso  1.000000 Mn
   Mn1048      1.0     0.902780     0.805560     0.833330    Biso  1.000000 Mn
   Na1573      1.0     0.875000     0.833330     0.000000    Biso  1.000000 Na
   Na1574      1.0     0.902780     0.847220     0.333330    Biso  1.000000 Na
   Na1575      1.0     0.888890     0.861110     0.666670    Biso  1.000000 Na
   O3145       1.0     0.875000     0.833330     0.239590    Biso  1.000000 O
   O3146       1.0     0.902780     0.847220     0.093750    Biso  1.000000 O
   O3147       1.0     0.902780     0.847220     0.572920    Biso  1.000000 O
   O3148       1.0     0.888890     0.861110     0.427080    Biso  1.000000 O
   O3149       1.0     0.888890     0.861110     0.906250    Biso  1.000000 O
   O3150       1.0     0.875000     0.833330     0.760410    Biso  1.000000 O
   Mn1049      1.0     0.888890     0.861110     0.166670    Biso  1.000000 Mn
   Mn1050      1.0     0.875000     0.833330     0.500000    Biso  1.000000 Mn
   Mn1051      1.0     0.902780     0.847220     0.833330    Biso  1.000000 Mn
   Na1576      1.0     0.875000     0.875000     0.000000    Biso  1.000000 Na
   Na1577      1.0     0.902780     0.888890     0.333330    Biso  1.000000 Na
   Na1578      1.0     0.888890     0.902780     0.666670    Biso  1.000000 Na
   O3151       1.0     0.875000     0.875000     0.239590    Biso  1.000000 O
   O3152       1.0     0.902780     0.888890     0.093750    Biso  1.000000 O
   O3153       1.0     0.902780     0.888890     0.572920    Biso  1.000000 O
   O3154       1.0     0.888890     0.902780     0.427080    Biso  1.000000 O
   O3155       1.0     0.888890     0.902780     0.906250    Biso  1.000000 O
   O3156       1.0     0.875000     0.875000     0.760410    Biso  1.000000 O
   Mn1052      1.0     0.888890     0.902780     0.166670    Biso  1.000000 Mn
   Ni258       1.0     0.875000     0.875000     0.500000    Biso  1.000000 Ni
   Ni259       1.0     0.902780     0.888890     0.833330    Biso  1.000000 Ni
   Na1579      1.0     0.875000     0.916670     0.000000    Biso  1.000000 Na
   Na1580      1.0     0.902780     0.930560     0.333330    Biso  1.000000 Na
   Na1581      1.0     0.888890     0.944440     0.666670    Biso  1.000000 Na
   O3157       1.0     0.875000     0.916670     0.239590    Biso  1.000000 O
   O3158       1.0     0.902780     0.930560     0.093750    Biso  1.000000 O
   O3159       1.0     0.902780     0.930560     0.572920    Biso  1.000000 O
   O3160       1.0     0.888890     0.944440     0.427080    Biso  1.000000 O
   O3161       1.0     0.888890     0.944440     0.906250    Biso  1.000000 O
   O3162       1.0     0.875000     0.916670     0.760410    Biso  1.000000 O
   Li268       1.0     0.888890     0.944440     0.166670    Biso  1.000000 Li
   Mn1053      1.0     0.875000     0.916670     0.500000    Biso  1.000000 Mn
   Mn1054      1.0     0.902780     0.930560     0.833330    Biso  1.000000 Mn
   Na1582      1.0     0.875000     0.958330     0.000000    Biso  1.000000 Na
   Na1583      1.0     0.902780     0.972220     0.333330    Biso  1.000000 Na
   Na1584      1.0     0.888890     0.986110     0.666670    Biso  1.000000 Na
   O3163       1.0     0.875000     0.958330     0.239590    Biso  1.000000 O
   O3164       1.0     0.902780     0.972220     0.093750    Biso  1.000000 O
   O3165       1.0     0.902780     0.972220     0.572920    Biso  1.000000 O
   O3166       1.0     0.888890     0.986110     0.427080    Biso  1.000000 O
   O3167       1.0     0.888890     0.986110     0.906250    Biso  1.000000 O
   O3168       1.0     0.875000     0.958330     0.760410    Biso  1.000000 O
   Mn1055      1.0     0.888890     0.986110     0.166670    Biso  1.000000 Mn
   Mn1056      1.0     0.875000     0.958330     0.500000    Biso  1.000000 Mn
   Mn1057      1.0     0.902780     0.972220     0.833330    Biso  1.000000 Mn
   Na1585      1.0     0.916670     0.000000     0.000000    Biso  1.000000 Na
   Na1586      1.0     0.944440     0.013890     0.333330    Biso  1.000000 Na
   Na1587      1.0     0.930560     0.027780     0.666670    Biso  1.000000 Na
   O3169       1.0     0.916670     0.000000     0.239590    Biso  1.000000 O
   O3170       1.0     0.944440     0.013890     0.093750    Biso  1.000000 O
   O3171       1.0     0.944440     0.013890     0.572920    Biso  1.000000 O
   O3172       1.0     0.930560     0.027780     0.427080    Biso  1.000000 O
   O3173       1.0     0.930560     0.027780     0.906250    Biso  1.000000 O
   O3174       1.0     0.916670     0.000000     0.760410    Biso  1.000000 O
   Ni260       1.0     0.930560     0.027780     0.166670    Biso  1.000000 Ni
   Mn1058      1.0     0.916670     0.000000     0.500000    Biso  1.000000 Mn
   Mn1059      1.0     0.944440     0.013890     0.833330    Biso  1.000000 Mn
   Na1588      1.0     0.916670     0.041670     0.000000    Biso  1.000000 Na
   Na1589      1.0     0.944440     0.055560     0.333330    Biso  1.000000 Na
   Na1590      1.0     0.930560     0.069440     0.666670    Biso  1.000000 Na
   O3175       1.0     0.916670     0.041670     0.239590    Biso  1.000000 O
   O3176       1.0     0.944440     0.055560     0.093750    Biso  1.000000 O
   O3177       1.0     0.944440     0.055560     0.572920    Biso  1.000000 O
   O3178       1.0     0.930560     0.069440     0.427080    Biso  1.000000 O
   O3179       1.0     0.930560     0.069440     0.906250    Biso  1.000000 O
   O3180       1.0     0.916670     0.041670     0.760410    Biso  1.000000 O
   Mn1060      1.0     0.930560     0.069440     0.166670    Biso  1.000000 Mn
   Mn1061      1.0     0.916670     0.041670     0.500000    Biso  1.000000 Mn
   Mn1062      1.0     0.944440     0.055560     0.833330    Biso  1.000000 Mn
   Na1591      1.0     0.916670     0.083330     0.000000    Biso  1.000000 Na
   Na1592      1.0     0.944440     0.097220     0.333330    Biso  1.000000 Na
   Na1593      1.0     0.930560     0.111110     0.666670    Biso  1.000000 Na
   O3181       1.0     0.916670     0.083330     0.239590    Biso  1.000000 O
   O3182       1.0     0.944440     0.097220     0.093750    Biso  1.000000 O
   O3183       1.0     0.944440     0.097220     0.572920    Biso  1.000000 O
   O3184       1.0     0.930560     0.111110     0.427080    Biso  1.000000 O
   O3185       1.0     0.930560     0.111110     0.906250    Biso  1.000000 O
   O3186       1.0     0.916670     0.083330     0.760410    Biso  1.000000 O
   Mn1063      1.0     0.930560     0.111110     0.166670    Biso  1.000000 Mn
   Ni261       1.0     0.916670     0.083330     0.500000    Biso  1.000000 Ni
   Ni262       1.0     0.944440     0.097220     0.833330    Biso  1.000000 Ni
   Na1594      1.0     0.916670     0.125000     0.000000    Biso  1.000000 Na
   Na1595      1.0     0.944440     0.138890     0.333330    Biso  1.000000 Na
   Na1596      1.0     0.930560     0.152780     0.666670    Biso  1.000000 Na
   O3187       1.0     0.916670     0.125000     0.239590    Biso  1.000000 O
   O3188       1.0     0.944440     0.138890     0.093750    Biso  1.000000 O
   O3189       1.0     0.944440     0.138890     0.572920    Biso  1.000000 O
   O3190       1.0     0.930560     0.152780     0.427080    Biso  1.000000 O
   O3191       1.0     0.930560     0.152780     0.906250    Biso  1.000000 O
   O3192       1.0     0.916670     0.125000     0.760410    Biso  1.000000 O
   Ni263       1.0     0.930560     0.152780     0.166670    Biso  1.000000 Ni
   Mn1064      1.0     0.916670     0.125000     0.500000    Biso  1.000000 Mn
   Mn1065      1.0     0.944440     0.138890     0.833330    Biso  1.000000 Mn
   Na1597      1.0     0.916670     0.166670     0.000000    Biso  1.000000 Na
   Na1598      1.0     0.944440     0.180560     0.333330    Biso  1.000000 Na
   Na1599      1.0     0.930560     0.194440     0.666670    Biso  1.000000 Na
   O3193       1.0     0.916670     0.166670     0.239590    Biso  1.000000 O
   O3194       1.0     0.944440     0.180560     0.093750    Biso  1.000000 O
   O3195       1.0     0.944440     0.180560     0.572920    Biso  1.000000 O
   O3196       1.0     0.930560     0.194440     0.427080    Biso  1.000000 O
   O3197       1.0     0.930560     0.194440     0.906250    Biso  1.000000 O
   O3198       1.0     0.916670     0.166670     0.760410    Biso  1.000000 O
   Mn1066      1.0     0.930560     0.194440     0.166670    Biso  1.000000 Mn
   Mn1067      1.0     0.916670     0.166670     0.500000    Biso  1.000000 Mn
   Mn1068      1.0     0.944440     0.180560     0.833330    Biso  1.000000 Mn
   Na1600      1.0     0.916670     0.208330     0.000000    Biso  1.000000 Na
   Na1601      1.0     0.944440     0.222220     0.333330    Biso  1.000000 Na
   Na1602      1.0     0.930560     0.236110     0.666670    Biso  1.000000 Na
   O3199       1.0     0.916670     0.208330     0.239590    Biso  1.000000 O
   O3200       1.0     0.944440     0.222220     0.093750    Biso  1.000000 O
   O3201       1.0     0.944440     0.222220     0.572920    Biso  1.000000 O
   O3202       1.0     0.930560     0.236110     0.427080    Biso  1.000000 O
   O3203       1.0     0.930560     0.236110     0.906250    Biso  1.000000 O
   O3204       1.0     0.916670     0.208330     0.760410    Biso  1.000000 O
   Mn1069      1.0     0.930560     0.236110     0.166670    Biso  1.000000 Mn
   Li269       1.0     0.916670     0.208330     0.500000    Biso  1.000000 Li
   Ni264       1.0     0.944440     0.222220     0.833330    Biso  1.000000 Ni
   Na1603      1.0     0.916670     0.250000     0.000000    Biso  1.000000 Na
   Na1604      1.0     0.944440     0.263890     0.333330    Biso  1.000000 Na
   Na1605      1.0     0.930560     0.277780     0.666670    Biso  1.000000 Na
   O3205       1.0     0.916670     0.250000     0.239590    Biso  1.000000 O
   O3206       1.0     0.944440     0.263890     0.093750    Biso  1.000000 O
   O3207       1.0     0.944440     0.263890     0.572920    Biso  1.000000 O
   O3208       1.0     0.930560     0.277780     0.427080    Biso  1.000000 O
   O3209       1.0     0.930560     0.277780     0.906250    Biso  1.000000 O
   O3210       1.0     0.916670     0.250000     0.760410    Biso  1.000000 O
   Ni265       1.0     0.930560     0.277780     0.166670    Biso  1.000000 Ni
   Mn1070      1.0     0.916670     0.250000     0.500000    Biso  1.000000 Mn
   Mn1071      1.0     0.944440     0.263890     0.833330    Biso  1.000000 Mn
   Na1606      1.0     0.916670     0.291670     0.000000    Biso  1.000000 Na
   Na1607      1.0     0.944440     0.305560     0.333330    Biso  1.000000 Na
   Na1608      1.0     0.930560     0.319440     0.666670    Biso  1.000000 Na
   O3211       1.0     0.916670     0.291670     0.239590    Biso  1.000000 O
   O3212       1.0     0.944440     0.305560     0.093750    Biso  1.000000 O
   O3213       1.0     0.944440     0.305560     0.572920    Biso  1.000000 O
   O3214       1.0     0.930560     0.319440     0.427080    Biso  1.000000 O
   O3215       1.0     0.930560     0.319440     0.906250    Biso  1.000000 O
   O3216       1.0     0.916670     0.291670     0.760410    Biso  1.000000 O
   Ni266       1.0     0.930560     0.319440     0.166670    Biso  1.000000 Ni
   Mn1072      1.0     0.916670     0.291670     0.500000    Biso  1.000000 Mn
   Mn1073      1.0     0.944440     0.305560     0.833330    Biso  1.000000 Mn
   Na1609      1.0     0.916670     0.333330     0.000000    Biso  1.000000 Na
   Na1610      1.0     0.944440     0.347220     0.333330    Biso  1.000000 Na
   Na1611      1.0     0.930560     0.361110     0.666670    Biso  1.000000 Na
   O3217       1.0     0.916670     0.333330     0.239590    Biso  1.000000 O
   O3218       1.0     0.944440     0.347220     0.093750    Biso  1.000000 O
   O3219       1.0     0.944440     0.347220     0.572920    Biso  1.000000 O
   O3220       1.0     0.930560     0.361110     0.427080    Biso  1.000000 O
   O3221       1.0     0.930560     0.361110     0.906250    Biso  1.000000 O
   O3222       1.0     0.916670     0.333330     0.760410    Biso  1.000000 O
   Mn1074      1.0     0.930560     0.361110     0.166670    Biso  1.000000 Mn
   Li270       1.0     0.916670     0.333330     0.500000    Biso  1.000000 Li
   Li271       1.0     0.944440     0.347220     0.833330    Biso  1.000000 Li
   Na1612      1.0     0.916670     0.375000     0.000000    Biso  1.000000 Na
   Na1613      1.0     0.944440     0.388890     0.333330    Biso  1.000000 Na
   Na1614      1.0     0.930560     0.402780     0.666670    Biso  1.000000 Na
   O3223       1.0     0.916670     0.375000     0.239590    Biso  1.000000 O
   O3224       1.0     0.944440     0.388890     0.093750    Biso  1.000000 O
   O3225       1.0     0.944440     0.388890     0.572920    Biso  1.000000 O
   O3226       1.0     0.930560     0.402780     0.427080    Biso  1.000000 O
   O3227       1.0     0.930560     0.402780     0.906250    Biso  1.000000 O
   O3228       1.0     0.916670     0.375000     0.760410    Biso  1.000000 O
   Mn1075      1.0     0.930560     0.402780     0.166670    Biso  1.000000 Mn
   Mn1076      1.0     0.916670     0.375000     0.500000    Biso  1.000000 Mn
   Mn1077      1.0     0.944440     0.388890     0.833330    Biso  1.000000 Mn
   Na1615      1.0     0.916670     0.416670     0.000000    Biso  1.000000 Na
   Na1616      1.0     0.944440     0.430560     0.333330    Biso  1.000000 Na
   Na1617      1.0     0.930560     0.444440     0.666670    Biso  1.000000 Na
   O3229       1.0     0.916670     0.416670     0.239590    Biso  1.000000 O
   O3230       1.0     0.944440     0.430560     0.093750    Biso  1.000000 O
   O3231       1.0     0.944440     0.430560     0.572920    Biso  1.000000 O
   O3232       1.0     0.930560     0.444440     0.427080    Biso  1.000000 O
   O3233       1.0     0.930560     0.444440     0.906250    Biso  1.000000 O
   O3234       1.0     0.916670     0.416670     0.760410    Biso  1.000000 O
   Li272       1.0     0.930560     0.444440     0.166670    Biso  1.000000 Li
   Mn1078      1.0     0.916670     0.416670     0.500000    Biso  1.000000 Mn
   Mn1079      1.0     0.944440     0.430560     0.833330    Biso  1.000000 Mn
   Na1618      1.0     0.916670     0.458330     0.000000    Biso  1.000000 Na
   Na1619      1.0     0.944440     0.472220     0.333330    Biso  1.000000 Na
   Na1620      1.0     0.930560     0.486110     0.666670    Biso  1.000000 Na
   O3235       1.0     0.916670     0.458330     0.239590    Biso  1.000000 O
   O3236       1.0     0.944440     0.472220     0.093750    Biso  1.000000 O
   O3237       1.0     0.944440     0.472220     0.572920    Biso  1.000000 O
   O3238       1.0     0.930560     0.486110     0.427080    Biso  1.000000 O
   O3239       1.0     0.930560     0.486110     0.906250    Biso  1.000000 O
   O3240       1.0     0.916670     0.458330     0.760410    Biso  1.000000 O
   Mn1080      1.0     0.930560     0.486110     0.166670    Biso  1.000000 Mn
   Li273       1.0     0.916670     0.458330     0.500000    Biso  1.000000 Li
   Mn1081      1.0     0.944440     0.472220     0.833330    Biso  1.000000 Mn
   Na1621      1.0     0.916670     0.500000     0.000000    Biso  1.000000 Na
   Na1622      1.0     0.944440     0.513890     0.333330    Biso  1.000000 Na
   Na1623      1.0     0.930560     0.527780     0.666670    Biso  1.000000 Na
   O3241       1.0     0.916670     0.500000     0.239590    Biso  1.000000 O
   O3242       1.0     0.944440     0.513890     0.093750    Biso  1.000000 O
   O3243       1.0     0.944440     0.513890     0.572920    Biso  1.000000 O
   O3244       1.0     0.930560     0.527780     0.427080    Biso  1.000000 O
   O3245       1.0     0.930560     0.527780     0.906250    Biso  1.000000 O
   O3246       1.0     0.916670     0.500000     0.760410    Biso  1.000000 O
   Mn1082      1.0     0.930560     0.527780     0.166670    Biso  1.000000 Mn
   Mn1083      1.0     0.916670     0.500000     0.500000    Biso  1.000000 Mn
   Li274       1.0     0.944440     0.513890     0.833330    Biso  1.000000 Li
   Na1624      1.0     0.916670     0.541670     0.000000    Biso  1.000000 Na
   Na1625      1.0     0.944440     0.555560     0.333330    Biso  1.000000 Na
   Na1626      1.0     0.930560     0.569440     0.666670    Biso  1.000000 Na
   O3247       1.0     0.916670     0.541670     0.239590    Biso  1.000000 O
   O3248       1.0     0.944440     0.555560     0.093750    Biso  1.000000 O
   O3249       1.0     0.944440     0.555560     0.572920    Biso  1.000000 O
   O3250       1.0     0.930560     0.569440     0.427080    Biso  1.000000 O
   O3251       1.0     0.930560     0.569440     0.906250    Biso  1.000000 O
   O3252       1.0     0.916670     0.541670     0.760410    Biso  1.000000 O
   Li275       1.0     0.930560     0.569440     0.166670    Biso  1.000000 Li
   Mn1084      1.0     0.916670     0.541670     0.500000    Biso  1.000000 Mn
   Mn1085      1.0     0.944440     0.555560     0.833330    Biso  1.000000 Mn
   Na1627      1.0     0.916670     0.583330     0.000000    Biso  1.000000 Na
   Na1628      1.0     0.944440     0.597220     0.333330    Biso  1.000000 Na
   Na1629      1.0     0.930560     0.611110     0.666670    Biso  1.000000 Na
   O3253       1.0     0.916670     0.583330     0.239590    Biso  1.000000 O
   O3254       1.0     0.944440     0.597220     0.093750    Biso  1.000000 O
   O3255       1.0     0.944440     0.597220     0.572920    Biso  1.000000 O
   O3256       1.0     0.930560     0.611110     0.427080    Biso  1.000000 O
   O3257       1.0     0.930560     0.611110     0.906250    Biso  1.000000 O
   O3258       1.0     0.916670     0.583330     0.760410    Biso  1.000000 O
   Mn1086      1.0     0.930560     0.611110     0.166670    Biso  1.000000 Mn
   Li276       1.0     0.916670     0.583330     0.500000    Biso  1.000000 Li
   Mn1087      1.0     0.944440     0.597220     0.833330    Biso  1.000000 Mn
   Na1630      1.0     0.916670     0.625000     0.000000    Biso  1.000000 Na
   Na1631      1.0     0.944440     0.638890     0.333330    Biso  1.000000 Na
   Na1632      1.0     0.930560     0.652780     0.666670    Biso  1.000000 Na
   O3259       1.0     0.916670     0.625000     0.239590    Biso  1.000000 O
   O3260       1.0     0.944440     0.638890     0.093750    Biso  1.000000 O
   O3261       1.0     0.944440     0.638890     0.572920    Biso  1.000000 O
   O3262       1.0     0.930560     0.652780     0.427080    Biso  1.000000 O
   O3263       1.0     0.930560     0.652780     0.906250    Biso  1.000000 O
   O3264       1.0     0.916670     0.625000     0.760410    Biso  1.000000 O
   Mn1088      1.0     0.930560     0.652780     0.166670    Biso  1.000000 Mn
   Mn1089      1.0     0.916670     0.625000     0.500000    Biso  1.000000 Mn
   Li277       1.0     0.944440     0.638890     0.833330    Biso  1.000000 Li
   Na1633      1.0     0.916670     0.666670     0.000000    Biso  1.000000 Na
   Na1634      1.0     0.944440     0.680560     0.333330    Biso  1.000000 Na
   Na1635      1.0     0.930560     0.694440     0.666670    Biso  1.000000 Na
   O3265       1.0     0.916670     0.666670     0.239590    Biso  1.000000 O
   O3266       1.0     0.944440     0.680560     0.093750    Biso  1.000000 O
   O3267       1.0     0.944440     0.680560     0.572920    Biso  1.000000 O
   O3268       1.0     0.930560     0.694440     0.427080    Biso  1.000000 O
   O3269       1.0     0.930560     0.694440     0.906250    Biso  1.000000 O
   O3270       1.0     0.916670     0.666670     0.760410    Biso  1.000000 O
   Li278       1.0     0.930560     0.694440     0.166670    Biso  1.000000 Li
   Mn1090      1.0     0.916670     0.666670     0.500000    Biso  1.000000 Mn
   Mn1091      1.0     0.944440     0.680560     0.833330    Biso  1.000000 Mn
   Na1636      1.0     0.916670     0.708330     0.000000    Biso  1.000000 Na
   Na1637      1.0     0.944440     0.722220     0.333330    Biso  1.000000 Na
   Na1638      1.0     0.930560     0.736110     0.666670    Biso  1.000000 Na
   O3271       1.0     0.916670     0.708330     0.239590    Biso  1.000000 O
   O3272       1.0     0.944440     0.722220     0.093750    Biso  1.000000 O
   O3273       1.0     0.944440     0.722220     0.572920    Biso  1.000000 O
   O3274       1.0     0.930560     0.736110     0.427080    Biso  1.000000 O
   O3275       1.0     0.930560     0.736110     0.906250    Biso  1.000000 O
   O3276       1.0     0.916670     0.708330     0.760410    Biso  1.000000 O
   Mn1092      1.0     0.930560     0.736110     0.166670    Biso  1.000000 Mn
   Ni267       1.0     0.916670     0.708330     0.500000    Biso  1.000000 Ni
   Mn1093      1.0     0.944440     0.722220     0.833330    Biso  1.000000 Mn
   Na1639      1.0     0.916670     0.750000     0.000000    Biso  1.000000 Na
   Na1640      1.0     0.944440     0.763890     0.333330    Biso  1.000000 Na
   Na1641      1.0     0.930560     0.777780     0.666670    Biso  1.000000 Na
   O3277       1.0     0.916670     0.750000     0.239590    Biso  1.000000 O
   O3278       1.0     0.944440     0.763890     0.093750    Biso  1.000000 O
   O3279       1.0     0.944440     0.763890     0.572920    Biso  1.000000 O
   O3280       1.0     0.930560     0.777780     0.427080    Biso  1.000000 O
   O3281       1.0     0.930560     0.777780     0.906250    Biso  1.000000 O
   O3282       1.0     0.916670     0.750000     0.760410    Biso  1.000000 O
   Ni268       1.0     0.930560     0.777780     0.166670    Biso  1.000000 Ni
   Mn1094      1.0     0.916670     0.750000     0.500000    Biso  1.000000 Mn
   Ni269       1.0     0.944440     0.763890     0.833330    Biso  1.000000 Ni
   Na1642      1.0     0.916670     0.791670     0.000000    Biso  1.000000 Na
   Na1643      1.0     0.944440     0.805560     0.333330    Biso  1.000000 Na
   Na1644      1.0     0.930560     0.819440     0.666670    Biso  1.000000 Na
   O3283       1.0     0.916670     0.791670     0.239590    Biso  1.000000 O
   O3284       1.0     0.944440     0.805560     0.093750    Biso  1.000000 O
   O3285       1.0     0.944440     0.805560     0.572920    Biso  1.000000 O
   O3286       1.0     0.930560     0.819440     0.427080    Biso  1.000000 O
   O3287       1.0     0.930560     0.819440     0.906250    Biso  1.000000 O
   O3288       1.0     0.916670     0.791670     0.760410    Biso  1.000000 O
   Mn1095      1.0     0.930560     0.819440     0.166670    Biso  1.000000 Mn
   Mn1096      1.0     0.916670     0.791670     0.500000    Biso  1.000000 Mn
   Ni270       1.0     0.944440     0.805560     0.833330    Biso  1.000000 Ni
   Na1645      1.0     0.916670     0.833330     0.000000    Biso  1.000000 Na
   Na1646      1.0     0.944440     0.847220     0.333330    Biso  1.000000 Na
   Na1647      1.0     0.930560     0.861110     0.666670    Biso  1.000000 Na
   O3289       1.0     0.916670     0.833330     0.239590    Biso  1.000000 O
   O3290       1.0     0.944440     0.847220     0.093750    Biso  1.000000 O
   O3291       1.0     0.944440     0.847220     0.572920    Biso  1.000000 O
   O3292       1.0     0.930560     0.861110     0.427080    Biso  1.000000 O
   O3293       1.0     0.930560     0.861110     0.906250    Biso  1.000000 O
   O3294       1.0     0.916670     0.833330     0.760410    Biso  1.000000 O
   Mn1097      1.0     0.930560     0.861110     0.166670    Biso  1.000000 Mn
   Ni271       1.0     0.916670     0.833330     0.500000    Biso  1.000000 Ni
   Ni272       1.0     0.944440     0.847220     0.833330    Biso  1.000000 Ni
   Na1648      1.0     0.916670     0.875000     0.000000    Biso  1.000000 Na
   Na1649      1.0     0.944440     0.888890     0.333330    Biso  1.000000 Na
   Na1650      1.0     0.930560     0.902780     0.666670    Biso  1.000000 Na
   O3295       1.0     0.916670     0.875000     0.239590    Biso  1.000000 O
   O3296       1.0     0.944440     0.888890     0.093750    Biso  1.000000 O
   O3297       1.0     0.944440     0.888890     0.572920    Biso  1.000000 O
   O3298       1.0     0.930560     0.902780     0.427080    Biso  1.000000 O
   O3299       1.0     0.930560     0.902780     0.906250    Biso  1.000000 O
   O3300       1.0     0.916670     0.875000     0.760410    Biso  1.000000 O
   Ni273       1.0     0.930560     0.902780     0.166670    Biso  1.000000 Ni
   Mn1098      1.0     0.916670     0.875000     0.500000    Biso  1.000000 Mn
   Mn1099      1.0     0.944440     0.888890     0.833330    Biso  1.000000 Mn
   Na1651      1.0     0.916670     0.916670     0.000000    Biso  1.000000 Na
   Na1652      1.0     0.944440     0.930560     0.333330    Biso  1.000000 Na
   Na1653      1.0     0.930560     0.944440     0.666670    Biso  1.000000 Na
   O3301       1.0     0.916670     0.916670     0.239590    Biso  1.000000 O
   O3302       1.0     0.944440     0.930560     0.093750    Biso  1.000000 O
   O3303       1.0     0.944440     0.930560     0.572920    Biso  1.000000 O
   O3304       1.0     0.930560     0.944440     0.427080    Biso  1.000000 O
   O3305       1.0     0.930560     0.944440     0.906250    Biso  1.000000 O
   O3306       1.0     0.916670     0.916670     0.760410    Biso  1.000000 O
   Mn1100      1.0     0.930560     0.944440     0.166670    Biso  1.000000 Mn
   Mn1101      1.0     0.916670     0.916670     0.500000    Biso  1.000000 Mn
   Mn1102      1.0     0.944440     0.930560     0.833330    Biso  1.000000 Mn
   Na1654      1.0     0.916670     0.958330     0.000000    Biso  1.000000 Na
   Na1655      1.0     0.944440     0.972220     0.333330    Biso  1.000000 Na
   Na1656      1.0     0.930560     0.986110     0.666670    Biso  1.000000 Na
   O3307       1.0     0.916670     0.958330     0.239590    Biso  1.000000 O
   O3308       1.0     0.944440     0.972220     0.093750    Biso  1.000000 O
   O3309       1.0     0.944440     0.972220     0.572920    Biso  1.000000 O
   O3310       1.0     0.930560     0.986110     0.427080    Biso  1.000000 O
   O3311       1.0     0.930560     0.986110     0.906250    Biso  1.000000 O
   O3312       1.0     0.916670     0.958330     0.760410    Biso  1.000000 O
   Mn1103      1.0     0.930560     0.986110     0.166670    Biso  1.000000 Mn
   Li279       1.0     0.916670     0.958330     0.500000    Biso  1.000000 Li
   Ni274       1.0     0.944440     0.972220     0.833330    Biso  1.000000 Ni
   Na1657      1.0     0.958330     0.000000     0.000000    Biso  1.000000 Na
   Na1658      1.0     0.986110     0.013890     0.333330    Biso  1.000000 Na
   Na1659      1.0     0.972220     0.027780     0.666670    Biso  1.000000 Na
   O3313       1.0     0.958330     0.000000     0.239590    Biso  1.000000 O
   O3314       1.0     0.986110     0.013890     0.093750    Biso  1.000000 O
   O3315       1.0     0.986110     0.013890     0.572920    Biso  1.000000 O
   O3316       1.0     0.972220     0.027780     0.427080    Biso  1.000000 O
   O3317       1.0     0.972220     0.027780     0.906250    Biso  1.000000 O
   O3318       1.0     0.958330     0.000000     0.760410    Biso  1.000000 O
   Mn1104      1.0     0.972220     0.027780     0.166670    Biso  1.000000 Mn
   Mn1105      1.0     0.958330     0.000000     0.500000    Biso  1.000000 Mn
   Mn1106      1.0     0.986110     0.013890     0.833330    Biso  1.000000 Mn
   Na1660      1.0     0.958330     0.041670     0.000000    Biso  1.000000 Na
   Na1661      1.0     0.986110     0.055560     0.333330    Biso  1.000000 Na
   Na1662      1.0     0.972220     0.069440     0.666670    Biso  1.000000 Na
   O3319       1.0     0.958330     0.041670     0.239590    Biso  1.000000 O
   O3320       1.0     0.986110     0.055560     0.093750    Biso  1.000000 O
   O3321       1.0     0.986110     0.055560     0.572920    Biso  1.000000 O
   O3322       1.0     0.972220     0.069440     0.427080    Biso  1.000000 O
   O3323       1.0     0.972220     0.069440     0.906250    Biso  1.000000 O
   O3324       1.0     0.958330     0.041670     0.760410    Biso  1.000000 O
   Mn1107      1.0     0.972220     0.069440     0.166670    Biso  1.000000 Mn
   Ni275       1.0     0.958330     0.041670     0.500000    Biso  1.000000 Ni
   Ni276       1.0     0.986110     0.055560     0.833330    Biso  1.000000 Ni
   Na1663      1.0     0.958330     0.083330     0.000000    Biso  1.000000 Na
   Na1664      1.0     0.986110     0.097220     0.333330    Biso  1.000000 Na
   Na1665      1.0     0.972220     0.111110     0.666670    Biso  1.000000 Na
   O3325       1.0     0.958330     0.083330     0.239590    Biso  1.000000 O
   O3326       1.0     0.986110     0.097220     0.093750    Biso  1.000000 O
   O3327       1.0     0.986110     0.097220     0.572920    Biso  1.000000 O
   O3328       1.0     0.972220     0.111110     0.427080    Biso  1.000000 O
   O3329       1.0     0.972220     0.111110     0.906250    Biso  1.000000 O
   O3330       1.0     0.958330     0.083330     0.760410    Biso  1.000000 O
   Ni277       1.0     0.972220     0.111110     0.166670    Biso  1.000000 Ni
   Mn1108      1.0     0.958330     0.083330     0.500000    Biso  1.000000 Mn
   Mn1109      1.0     0.986110     0.097220     0.833330    Biso  1.000000 Mn
   Na1666      1.0     0.958330     0.125000     0.000000    Biso  1.000000 Na
   Na1667      1.0     0.986110     0.138890     0.333330    Biso  1.000000 Na
   Na1668      1.0     0.972220     0.152780     0.666670    Biso  1.000000 Na
   O3331       1.0     0.958330     0.125000     0.239590    Biso  1.000000 O
   O3332       1.0     0.986110     0.138890     0.093750    Biso  1.000000 O
   O3333       1.0     0.986110     0.138890     0.572920    Biso  1.000000 O
   O3334       1.0     0.972220     0.152780     0.427080    Biso  1.000000 O
   O3335       1.0     0.972220     0.152780     0.906250    Biso  1.000000 O
   O3336       1.0     0.958330     0.125000     0.760410    Biso  1.000000 O
   Mn1110      1.0     0.972220     0.152780     0.166670    Biso  1.000000 Mn
   Mn1111      1.0     0.958330     0.125000     0.500000    Biso  1.000000 Mn
   Mn1112      1.0     0.986110     0.138890     0.833330    Biso  1.000000 Mn
   Na1669      1.0     0.958330     0.166670     0.000000    Biso  1.000000 Na
   Na1670      1.0     0.986110     0.180560     0.333330    Biso  1.000000 Na
   Na1671      1.0     0.972220     0.194440     0.666670    Biso  1.000000 Na
   O3337       1.0     0.958330     0.166670     0.239590    Biso  1.000000 O
   O3338       1.0     0.986110     0.180560     0.093750    Biso  1.000000 O
   O3339       1.0     0.986110     0.180560     0.572920    Biso  1.000000 O
   O3340       1.0     0.972220     0.194440     0.427080    Biso  1.000000 O
   O3341       1.0     0.972220     0.194440     0.906250    Biso  1.000000 O
   O3342       1.0     0.958330     0.166670     0.760410    Biso  1.000000 O
   Mn1113      1.0     0.972220     0.194440     0.166670    Biso  1.000000 Mn
   Ni278       1.0     0.958330     0.166670     0.500000    Biso  1.000000 Ni
   Ni279       1.0     0.986110     0.180560     0.833330    Biso  1.000000 Ni
   Na1672      1.0     0.958330     0.208330     0.000000    Biso  1.000000 Na
   Na1673      1.0     0.986110     0.222220     0.333330    Biso  1.000000 Na
   Na1674      1.0     0.972220     0.236110     0.666670    Biso  1.000000 Na
   O3343       1.0     0.958330     0.208330     0.239590    Biso  1.000000 O
   O3344       1.0     0.986110     0.222220     0.093750    Biso  1.000000 O
   O3345       1.0     0.986110     0.222220     0.572920    Biso  1.000000 O
   O3346       1.0     0.972220     0.236110     0.427080    Biso  1.000000 O
   O3347       1.0     0.972220     0.236110     0.906250    Biso  1.000000 O
   O3348       1.0     0.958330     0.208330     0.760410    Biso  1.000000 O
   Ni280       1.0     0.972220     0.236110     0.166670    Biso  1.000000 Ni
   Mn1114      1.0     0.958330     0.208330     0.500000    Biso  1.000000 Mn
   Mn1115      1.0     0.986110     0.222220     0.833330    Biso  1.000000 Mn
   Na1675      1.0     0.958330     0.250000     0.000000    Biso  1.000000 Na
   Na1676      1.0     0.986110     0.263890     0.333330    Biso  1.000000 Na
   Na1677      1.0     0.972220     0.277780     0.666670    Biso  1.000000 Na
   O3349       1.0     0.958330     0.250000     0.239590    Biso  1.000000 O
   O3350       1.0     0.986110     0.263890     0.093750    Biso  1.000000 O
   O3351       1.0     0.986110     0.263890     0.572920    Biso  1.000000 O
   O3352       1.0     0.972220     0.277780     0.427080    Biso  1.000000 O
   O3353       1.0     0.972220     0.277780     0.906250    Biso  1.000000 O
   O3354       1.0     0.958330     0.250000     0.760410    Biso  1.000000 O
   Mn1116      1.0     0.972220     0.277780     0.166670    Biso  1.000000 Mn
   Mn1117      1.0     0.958330     0.250000     0.500000    Biso  1.000000 Mn
   Mn1118      1.0     0.986110     0.263890     0.833330    Biso  1.000000 Mn
   Na1678      1.0     0.958330     0.291670     0.000000    Biso  1.000000 Na
   Na1679      1.0     0.986110     0.305560     0.333330    Biso  1.000000 Na
   Na1680      1.0     0.972220     0.319440     0.666670    Biso  1.000000 Na
   O3355       1.0     0.958330     0.291670     0.239590    Biso  1.000000 O
   O3356       1.0     0.986110     0.305560     0.093750    Biso  1.000000 O
   O3357       1.0     0.986110     0.305560     0.572920    Biso  1.000000 O
   O3358       1.0     0.972220     0.319440     0.427080    Biso  1.000000 O
   O3359       1.0     0.972220     0.319440     0.906250    Biso  1.000000 O
   O3360       1.0     0.958330     0.291670     0.760410    Biso  1.000000 O
   Mn1119      1.0     0.972220     0.319440     0.166670    Biso  1.000000 Mn
   Li280       1.0     0.958330     0.291670     0.500000    Biso  1.000000 Li
   Ni281       1.0     0.986110     0.305560     0.833330    Biso  1.000000 Ni
   Na1681      1.0     0.958330     0.333330     0.000000    Biso  1.000000 Na
   Na1682      1.0     0.986110     0.347220     0.333330    Biso  1.000000 Na
   Na1683      1.0     0.972220     0.361110     0.666670    Biso  1.000000 Na
   O3361       1.0     0.958330     0.333330     0.239590    Biso  1.000000 O
   O3362       1.0     0.986110     0.347220     0.093750    Biso  1.000000 O
   O3363       1.0     0.986110     0.347220     0.572920    Biso  1.000000 O
   O3364       1.0     0.972220     0.361110     0.427080    Biso  1.000000 O
   O3365       1.0     0.972220     0.361110     0.906250    Biso  1.000000 O
   O3366       1.0     0.958330     0.333330     0.760410    Biso  1.000000 O
   Mn1120      1.0     0.972220     0.361110     0.166670    Biso  1.000000 Mn
   Mn1121      1.0     0.958330     0.333330     0.500000    Biso  1.000000 Mn
   Mn1122      1.0     0.986110     0.347220     0.833330    Biso  1.000000 Mn
   Na1684      1.0     0.958330     0.375000     0.000000    Biso  1.000000 Na
   Na1685      1.0     0.986110     0.388890     0.333330    Biso  1.000000 Na
   Na1686      1.0     0.972220     0.402780     0.666670    Biso  1.000000 Na
   O3367       1.0     0.958330     0.375000     0.239590    Biso  1.000000 O
   O3368       1.0     0.986110     0.388890     0.093750    Biso  1.000000 O
   O3369       1.0     0.986110     0.388890     0.572920    Biso  1.000000 O
   O3370       1.0     0.972220     0.402780     0.427080    Biso  1.000000 O
   O3371       1.0     0.972220     0.402780     0.906250    Biso  1.000000 O
   O3372       1.0     0.958330     0.375000     0.760410    Biso  1.000000 O
   Li281       1.0     0.972220     0.402780     0.166670    Biso  1.000000 Li
   Mn1123      1.0     0.958330     0.375000     0.500000    Biso  1.000000 Mn
   Mn1124      1.0     0.986110     0.388890     0.833330    Biso  1.000000 Mn
   Na1687      1.0     0.958330     0.416670     0.000000    Biso  1.000000 Na
   Na1688      1.0     0.986110     0.430560     0.333330    Biso  1.000000 Na
   Na1689      1.0     0.972220     0.444440     0.666670    Biso  1.000000 Na
   O3373       1.0     0.958330     0.416670     0.239590    Biso  1.000000 O
   O3374       1.0     0.986110     0.430560     0.093750    Biso  1.000000 O
   O3375       1.0     0.986110     0.430560     0.572920    Biso  1.000000 O
   O3376       1.0     0.972220     0.444440     0.427080    Biso  1.000000 O
   O3377       1.0     0.972220     0.444440     0.906250    Biso  1.000000 O
   O3378       1.0     0.958330     0.416670     0.760410    Biso  1.000000 O
   Mn1125      1.0     0.972220     0.444440     0.166670    Biso  1.000000 Mn
   Li282       1.0     0.958330     0.416670     0.500000    Biso  1.000000 Li
   Li283       1.0     0.986110     0.430560     0.833330    Biso  1.000000 Li
   Na1690      1.0     0.958330     0.458330     0.000000    Biso  1.000000 Na
   Na1691      1.0     0.986110     0.472220     0.333330    Biso  1.000000 Na
   Na1692      1.0     0.972220     0.486110     0.666670    Biso  1.000000 Na
   O3379       1.0     0.958330     0.458330     0.239590    Biso  1.000000 O
   O3380       1.0     0.986110     0.472220     0.093750    Biso  1.000000 O
   O3381       1.0     0.986110     0.472220     0.572920    Biso  1.000000 O
   O3382       1.0     0.972220     0.486110     0.427080    Biso  1.000000 O
   O3383       1.0     0.972220     0.486110     0.906250    Biso  1.000000 O
   O3384       1.0     0.958330     0.458330     0.760410    Biso  1.000000 O
   Mn1126      1.0     0.972220     0.486110     0.166670    Biso  1.000000 Mn
   Mn1127      1.0     0.958330     0.458330     0.500000    Biso  1.000000 Mn
   Mn1128      1.0     0.986110     0.472220     0.833330    Biso  1.000000 Mn
   Na1693      1.0     0.958330     0.500000     0.000000    Biso  1.000000 Na
   Na1694      1.0     0.986110     0.513890     0.333330    Biso  1.000000 Na
   Na1695      1.0     0.972220     0.527780     0.666670    Biso  1.000000 Na
   O3385       1.0     0.958330     0.500000     0.239590    Biso  1.000000 O
   O3386       1.0     0.986110     0.513890     0.093750    Biso  1.000000 O
   O3387       1.0     0.986110     0.513890     0.572920    Biso  1.000000 O
   O3388       1.0     0.972220     0.527780     0.427080    Biso  1.000000 O
   O3389       1.0     0.972220     0.527780     0.906250    Biso  1.000000 O
   O3390       1.0     0.958330     0.500000     0.760410    Biso  1.000000 O
   Li284       1.0     0.972220     0.527780     0.166670    Biso  1.000000 Li
   Mn1129      1.0     0.958330     0.500000     0.500000    Biso  1.000000 Mn
   Mn1130      1.0     0.986110     0.513890     0.833330    Biso  1.000000 Mn
   Na1696      1.0     0.958330     0.541670     0.000000    Biso  1.000000 Na
   Na1697      1.0     0.986110     0.555560     0.333330    Biso  1.000000 Na
   Na1698      1.0     0.972220     0.569440     0.666670    Biso  1.000000 Na
   O3391       1.0     0.958330     0.541670     0.239590    Biso  1.000000 O
   O3392       1.0     0.986110     0.555560     0.093750    Biso  1.000000 O
   O3393       1.0     0.986110     0.555560     0.572920    Biso  1.000000 O
   O3394       1.0     0.972220     0.569440     0.427080    Biso  1.000000 O
   O3395       1.0     0.972220     0.569440     0.906250    Biso  1.000000 O
   O3396       1.0     0.958330     0.541670     0.760410    Biso  1.000000 O
   Mn1131      1.0     0.972220     0.569440     0.166670    Biso  1.000000 Mn
   Li285       1.0     0.958330     0.541670     0.500000    Biso  1.000000 Li
   Mn1132      1.0     0.986110     0.555560     0.833330    Biso  1.000000 Mn
   Na1699      1.0     0.958330     0.583330     0.000000    Biso  1.000000 Na
   Na1700      1.0     0.986110     0.597220     0.333330    Biso  1.000000 Na
   Na1701      1.0     0.972220     0.611110     0.666670    Biso  1.000000 Na
   O3397       1.0     0.958330     0.583330     0.239590    Biso  1.000000 O
   O3398       1.0     0.986110     0.597220     0.093750    Biso  1.000000 O
   O3399       1.0     0.986110     0.597220     0.572920    Biso  1.000000 O
   O3400       1.0     0.972220     0.611110     0.427080    Biso  1.000000 O
   O3401       1.0     0.972220     0.611110     0.906250    Biso  1.000000 O
   O3402       1.0     0.958330     0.583330     0.760410    Biso  1.000000 O
   Mn1133      1.0     0.972220     0.611110     0.166670    Biso  1.000000 Mn
   Mn1134      1.0     0.958330     0.583330     0.500000    Biso  1.000000 Mn
   Li286       1.0     0.986110     0.597220     0.833330    Biso  1.000000 Li
   Na1702      1.0     0.958330     0.625000     0.000000    Biso  1.000000 Na
   Na1703      1.0     0.986110     0.638890     0.333330    Biso  1.000000 Na
   Na1704      1.0     0.972220     0.652780     0.666670    Biso  1.000000 Na
   O3403       1.0     0.958330     0.625000     0.239590    Biso  1.000000 O
   O3404       1.0     0.986110     0.638890     0.093750    Biso  1.000000 O
   O3405       1.0     0.986110     0.638890     0.572920    Biso  1.000000 O
   O3406       1.0     0.972220     0.652780     0.427080    Biso  1.000000 O
   O3407       1.0     0.972220     0.652780     0.906250    Biso  1.000000 O
   O3408       1.0     0.958330     0.625000     0.760410    Biso  1.000000 O
   Ni282       1.0     0.972220     0.652780     0.166670    Biso  1.000000 Ni
   Mn1135      1.0     0.958330     0.625000     0.500000    Biso  1.000000 Mn
   Mn1136      1.0     0.986110     0.638890     0.833330    Biso  1.000000 Mn
   Na1705      1.0     0.958330     0.666670     0.000000    Biso  1.000000 Na
   Na1706      1.0     0.986110     0.680560     0.333330    Biso  1.000000 Na
   Na1707      1.0     0.972220     0.694440     0.666670    Biso  1.000000 Na
   O3409       1.0     0.958330     0.666670     0.239590    Biso  1.000000 O
   O3410       1.0     0.986110     0.680560     0.093750    Biso  1.000000 O
   O3411       1.0     0.986110     0.680560     0.572920    Biso  1.000000 O
   O3412       1.0     0.972220     0.694440     0.427080    Biso  1.000000 O
   O3413       1.0     0.972220     0.694440     0.906250    Biso  1.000000 O
   O3414       1.0     0.958330     0.666670     0.760410    Biso  1.000000 O
   Mn1137      1.0     0.972220     0.694440     0.166670    Biso  1.000000 Mn
   Li287       1.0     0.958330     0.666670     0.500000    Biso  1.000000 Li
   Mn1138      1.0     0.986110     0.680560     0.833330    Biso  1.000000 Mn
   Na1708      1.0     0.958330     0.708330     0.000000    Biso  1.000000 Na
   Na1709      1.0     0.986110     0.722220     0.333330    Biso  1.000000 Na
   Na1710      1.0     0.972220     0.736110     0.666670    Biso  1.000000 Na
   O3415       1.0     0.958330     0.708330     0.239590    Biso  1.000000 O
   O3416       1.0     0.986110     0.722220     0.093750    Biso  1.000000 O
   O3417       1.0     0.986110     0.722220     0.572920    Biso  1.000000 O
   O3418       1.0     0.972220     0.736110     0.427080    Biso  1.000000 O
   O3419       1.0     0.972220     0.736110     0.906250    Biso  1.000000 O
   O3420       1.0     0.958330     0.708330     0.760410    Biso  1.000000 O
   Mn1139      1.0     0.972220     0.736110     0.166670    Biso  1.000000 Mn
   Mn1140      1.0     0.958330     0.708330     0.500000    Biso  1.000000 Mn
   Li288       1.0     0.986110     0.722220     0.833330    Biso  1.000000 Li
   Na1711      1.0     0.958330     0.750000     0.000000    Biso  1.000000 Na
   Na1712      1.0     0.986110     0.763890     0.333330    Biso  1.000000 Na
   Na1713      1.0     0.972220     0.777780     0.666670    Biso  1.000000 Na
   O3421       1.0     0.958330     0.750000     0.239590    Biso  1.000000 O
   O3422       1.0     0.986110     0.763890     0.093750    Biso  1.000000 O
   O3423       1.0     0.986110     0.763890     0.572920    Biso  1.000000 O
   O3424       1.0     0.972220     0.777780     0.427080    Biso  1.000000 O
   O3425       1.0     0.972220     0.777780     0.906250    Biso  1.000000 O
   O3426       1.0     0.958330     0.750000     0.760410    Biso  1.000000 O
   Mn1141      1.0     0.972220     0.777780     0.166670    Biso  1.000000 Mn
   Mn1142      1.0     0.958330     0.750000     0.500000    Biso  1.000000 Mn
   Mn1143      1.0     0.986110     0.763890     0.833330    Biso  1.000000 Mn
   Na1714      1.0     0.958330     0.791670     0.000000    Biso  1.000000 Na
   Na1715      1.0     0.986110     0.805560     0.333330    Biso  1.000000 Na
   Na1716      1.0     0.972220     0.819440     0.666670    Biso  1.000000 Na
   O3427       1.0     0.958330     0.791670     0.239590    Biso  1.000000 O
   O3428       1.0     0.986110     0.805560     0.093750    Biso  1.000000 O
   O3429       1.0     0.986110     0.805560     0.572920    Biso  1.000000 O
   O3430       1.0     0.972220     0.819440     0.427080    Biso  1.000000 O
   O3431       1.0     0.972220     0.819440     0.906250    Biso  1.000000 O
   O3432       1.0     0.958330     0.791670     0.760410    Biso  1.000000 O
   Mn1144      1.0     0.972220     0.819440     0.166670    Biso  1.000000 Mn
   Ni283       1.0     0.958330     0.791670     0.500000    Biso  1.000000 Ni
   Mn1145      1.0     0.986110     0.805560     0.833330    Biso  1.000000 Mn
   Na1717      1.0     0.958330     0.833330     0.000000    Biso  1.000000 Na
   Na1718      1.0     0.986110     0.847220     0.333330    Biso  1.000000 Na
   Na1719      1.0     0.972220     0.861110     0.666670    Biso  1.000000 Na
   O3433       1.0     0.958330     0.833330     0.239590    Biso  1.000000 O
   O3434       1.0     0.986110     0.847220     0.093750    Biso  1.000000 O
   O3435       1.0     0.986110     0.847220     0.572920    Biso  1.000000 O
   O3436       1.0     0.972220     0.861110     0.427080    Biso  1.000000 O
   O3437       1.0     0.972220     0.861110     0.906250    Biso  1.000000 O
   O3438       1.0     0.958330     0.833330     0.760410    Biso  1.000000 O
   Ni284       1.0     0.972220     0.861110     0.166670    Biso  1.000000 Ni
   Mn1146      1.0     0.958330     0.833330     0.500000    Biso  1.000000 Mn
   Ni285       1.0     0.986110     0.847220     0.833330    Biso  1.000000 Ni
   Na1720      1.0     0.958330     0.875000     0.000000    Biso  1.000000 Na
   Na1721      1.0     0.986110     0.888890     0.333330    Biso  1.000000 Na
   Na1722      1.0     0.972220     0.902780     0.666670    Biso  1.000000 Na
   O3439       1.0     0.958330     0.875000     0.239590    Biso  1.000000 O
   O3440       1.0     0.986110     0.888890     0.093750    Biso  1.000000 O
   O3441       1.0     0.986110     0.888890     0.572920    Biso  1.000000 O
   O3442       1.0     0.972220     0.902780     0.427080    Biso  1.000000 O
   O3443       1.0     0.972220     0.902780     0.906250    Biso  1.000000 O
   O3444       1.0     0.958330     0.875000     0.760410    Biso  1.000000 O
   Mn1147      1.0     0.972220     0.902780     0.166670    Biso  1.000000 Mn
   Mn1148      1.0     0.958330     0.875000     0.500000    Biso  1.000000 Mn
   Mn1149      1.0     0.986110     0.888890     0.833330    Biso  1.000000 Mn
   Na1723      1.0     0.958330     0.916670     0.000000    Biso  1.000000 Na
   Na1724      1.0     0.986110     0.930560     0.333330    Biso  1.000000 Na
   Na1725      1.0     0.972220     0.944440     0.666670    Biso  1.000000 Na
   O3445       1.0     0.958330     0.916670     0.239590    Biso  1.000000 O
   O3446       1.0     0.986110     0.930560     0.093750    Biso  1.000000 O
   O3447       1.0     0.986110     0.930560     0.572920    Biso  1.000000 O
   O3448       1.0     0.972220     0.944440     0.427080    Biso  1.000000 O
   O3449       1.0     0.972220     0.944440     0.906250    Biso  1.000000 O
   O3450       1.0     0.958330     0.916670     0.760410    Biso  1.000000 O
   Mn1150      1.0     0.972220     0.944440     0.166670    Biso  1.000000 Mn
   Ni286       1.0     0.958330     0.916670     0.500000    Biso  1.000000 Ni
   Ni287       1.0     0.986110     0.930560     0.833330    Biso  1.000000 Ni
   Na1726      1.0     0.958330     0.958330     0.000000    Biso  1.000000 Na
   Na1727      1.0     0.986110     0.972220     0.333330    Biso  1.000000 Na
   Na1728      1.0     0.972220     0.986110     0.666670    Biso  1.000000 Na
   O3451       1.0     0.958330     0.958330     0.239590    Biso  1.000000 O
   O3452       1.0     0.986110     0.972220     0.093750    Biso  1.000000 O
   O3453       1.0     0.986110     0.972220     0.572920    Biso  1.000000 O
   O3454       1.0     0.972220     0.986110     0.427080    Biso  1.000000 O
   O3455       1.0     0.972220     0.986110     0.906250    Biso  1.000000 O
   O3456       1.0     0.958330     0.958330     0.760410    Biso  1.000000 O
   Ni288       1.0     0.972220     0.986110     0.166670    Biso  1.000000 Ni
   Mn1151      1.0     0.958330     0.958330     0.500000    Biso  1.000000 Mn
   Mn1152      1.0     0.986110     0.972220     0.833330    Biso  1.000000 Mn
